--------------------------------------------------------------------------
[[23588,1],7]: A high-performance Open MPI point-to-point messaging module
was unable to find any relevant network interfaces:

Module: OpenFabrics (openib)
  Host: ip-172-31-15-245

Another transport will be used instead, although this may result in
lower performance.
--------------------------------------------------------------------------
/*---------------------------------------------------------------------------*\
| =========                 |                                                 |
| \\      /  F ield         | OpenFOAM: The Open Source CFD Toolbox           |
|  \\    /   O peration     | Version:  4.1                                   |
|   \\  /    A nd           | Web:      www.OpenFOAM.org                      |
|    \\/     M anipulation  |                                                 |
\*---------------------------------------------------------------------------*/
Build  : 4.1
Exec   : simpleFoam -parallel
Date   : Jun 17 2018
Time   : 14:02:13
Host   : "ip-172-31-15-245"
PID    : 12851
Case   : /home/ubuntu/OpenFOAM/ubuntu-4.1/run/caly_bolid_SKPS
nProcs : 8
Slaves : 
7
(
"ip-172-31-15-245.12852"
"ip-172-31-15-245.12853"
"ip-172-31-15-245.12854"
"ip-172-31-15-245.12855"
"ip-172-31-15-245.12856"
"ip-172-31-15-245.12857"
"ip-172-31-15-245.12858"
)

Pstream initialized with:
    floatTransfer      : 0
    nProcsSimpleSum    : 0
    commsType          : nonBlocking
    polling iterations : 0
sigFpe : Enabling floating point exception trapping (FOAM_SIGFPE).
fileModificationChecking : Monitoring run-time modified files using timeStampMaster
allowSystemOperations : Allowing user-supplied system call operations

// * * * * * * * * * * * * * * * * * * * * * * * * * * * * * * * * * * * * * //
Create time

Create mesh for time = 0


SIMPLE: no convergence criteria found. Calculations will run for 100 steps.

Reading field p

Reading field U

Reading/calculating face flux field phi

Selecting incompressible transport model Newtonian
Selecting turbulence model type RAS
Selecting RAS turbulence model kOmegaSST
Selecting patchDistMethod meshWave
kOmegaSSTCoeffs
{
    alphaK1         0.85;
    alphaK2         1;
    alphaOmega1     0.5;
    alphaOmega2     0.856;
    gamma1          0.556;
    gamma2          0.44;
    beta1           0.075;
    beta2           0.0828;
    betaStar        0.09;
    a1              0.31;
    b1              1;
    c1              10;
    F3              false;
}

No MRF models present

No finite volume options present


Starting time loop

forces forceCoeffs1:
    Not including porosity effects
forceCoeffs forceCoeffs1:
    Not including porosity effects
forces forces_others:
    Not including porosity effects
forces forces_ns_rear_wing:
    Not including porosity effects
forces forces_mono:
    Not including porosity effects
forces forces_ns_front_wing:
    Not including porosity effects
forces forces_dyfuzor:
    Not including porosity effects
Time = 1

smoothSolver:  Solving for Ux, Initial residual = 1, Final residual = 0.0806, No Iterations 23
smoothSolver:  Solving for Uy, Initial residual = 1, Final residual = 0.0863, No Iterations 22
smoothSolver:  Solving for Uz, Initial residual = 1, Final residual = 0.0884, No Iterations 20
GAMG:  Solving for p, Initial residual = 1, Final residual = 0.0048, No Iterations 6
time step continuity errors : sum local = 0.000258, global = 2.13e-05, cumulative = 2.13e-05
smoothSolver:  Solving for omega, Initial residual = 8.84e-06, Final residual = 4.33e-07, No Iterations 3
bounding omega, min: -1.49e+04 max: 3.26e+09 average: 5.98e+03
smoothSolver:  Solving for k, Initial residual = 1, Final residual = 0.0657, No Iterations 4
ExecutionTime = 12.3 s  ClockTime = 12 s

forceCoeffs forceCoeffs1 write:
    Cm    = 1.64
    Cd    = 5.06
    Cl    = -2.83
    Cl(f) = 0.226
    Cl(r) = -3.06

forces forces_others write:
    sum of forces:
        pressure : (230 -48.4 90.6)
        viscous  : (0.798 0.0389 -0.0513)
        porous   : (0 0 0)
    sum of moments:
        pressure : (12.5 -127 43.5)
        viscous  : (0.0113 0.162 0.403)
        porous   : (0 0 0)

forces forces_ns_rear_wing write:
    sum of forces:
        pressure : (94.8 14.9 -103)
        viscous  : (0.384 0.0068 0.0108)
        porous   : (0 0 0)
    sum of moments:
        pressure : (17.1 265 46)
        viscous  : (-0.00531 0.244 0.134)
        porous   : (0 0 0)

forces forces_mono write:
    sum of forces:
        pressure : (27.8 51.4 15.6)
        viscous  : (0.124 -0.00386 0.00126)
        porous   : (0 0 0)
    sum of moments:
        pressure : (-3.72 16.3 -12.7)
        viscous  : (-0.00104 0.00871 0.0228)
        porous   : (0 0 0)

forces forces_ns_front_wing write:
    sum of forces:
        pressure : (30.5 -10.1 -53.4)
        viscous  : (0.322 -0.00339 0.00517)
        porous   : (0 0 0)
    sum of moments:
        pressure : (15.8 -27.2 15.6)
        viscous  : (-0.00239 -0.037 0.142)
        porous   : (0 0 0)

forces forces_dyfuzor write:
    sum of forces:
        pressure : (36.2 -26.7 -163)
        viscous  : (0.327 0.011 0.000665)
        porous   : (0 0 0)
    sum of moments:
        pressure : (29.3 285 -40.2)
        viscous  : (0.00166 -0.0583 0.136)
        porous   : (0 0 0)

Time = 2

smoothSolver:  Solving for Ux, Initial residual = 0.0957, Final residual = 0.00894, No Iterations 10
smoothSolver:  Solving for Uy, Initial residual = 0.234, Final residual = 0.0223, No Iterations 9
smoothSolver:  Solving for Uz, Initial residual = 0.168, Final residual = 0.0154, No Iterations 9
GAMG:  Solving for p, Initial residual = 0.0368, Final residual = 0.00018, No Iterations 5
time step continuity errors : sum local = 0.000746, global = -4.65e-05, cumulative = -2.52e-05
smoothSolver:  Solving for omega, Initial residual = 0.00795, Final residual = 2.63e-06, No Iterations 1
bounding omega, min: -4.69e+03 max: 3.26e+09 average: 5.85e+03
smoothSolver:  Solving for k, Initial residual = 0.0883, Final residual = 0.0083, No Iterations 3
ExecutionTime = 17.9 s  ClockTime = 18 s

forceCoeffs forceCoeffs1 write:
    Cm    = 1
    Cd    = 2.84
    Cl    = -2.47
    Cl(f) = -0.229
    Cl(r) = -2.24

forces forces_others write:
    sum of forces:
        pressure : (119 -24.5 47.5)
        viscous  : (0.589 0.0417 -0.0387)
        porous   : (0 0 0)
    sum of moments:
        pressure : (-0.399 -46.7 32.1)
        viscous  : (0.012 0.133 0.328)
        porous   : (0 0 0)

forces forces_ns_rear_wing write:
    sum of forces:
        pressure : (67.1 4.79 -90.6)
        viscous  : (0.297 0.00332 0.0705)
        porous   : (0 0 0)
    sum of moments:
        pressure : (20 217 21.8)
        viscous  : (-0.0157 0.0527 0.103)
        porous   : (0 0 0)

forces forces_mono write:
    sum of forces:
        pressure : (13.7 11.7 1.08)
        viscous  : (0.109 -0.0111 0.00555)
        porous   : (0 0 0)
    sum of moments:
        pressure : (-0.283 7.81 -5.6)
        viscous  : (-0.000864 0.00668 0.0217)
        porous   : (0 0 0)

forces forces_ns_front_wing write:
    sum of forces:
        pressure : (20.8 -6.28 -53.5)
        viscous  : (0.269 0.00374 0.0364)
        porous   : (0 0 0)
    sum of moments:
        pressure : (16 -30.9 10.3)
        viscous  : (-0.0134 -0.0222 0.12)
        porous   : (0 0 0)

forces forces_dyfuzor write:
    sum of forces:
        pressure : (14.7 -10.4 -103)
        viscous  : (0.314 0.0103 -0.003)
        porous   : (0 0 0)
    sum of moments:
        pressure : (20.8 152 -15)
        viscous  : (0.00368 -0.0547 0.129)
        porous   : (0 0 0)

Time = 3

smoothSolver:  Solving for Ux, Initial residual = 0.0326, Final residual = 0.00297, No Iterations 9
smoothSolver:  Solving for Uy, Initial residual = 0.124, Final residual = 0.012, No Iterations 8
smoothSolver:  Solving for Uz, Initial residual = 0.0543, Final residual = 0.00533, No Iterations 8
GAMG:  Solving for p, Initial residual = 0.0136, Final residual = 6e-05, No Iterations 5
time step continuity errors : sum local = 0.000394, global = -2.56e-05, cumulative = -5.08e-05
smoothSolver:  Solving for omega, Initial residual = 0.000728, Final residual = 1.36e-06, No Iterations 1
bounding omega, min: -8.26e+03 max: 3.26e+09 average: 5.88e+03
smoothSolver:  Solving for k, Initial residual = 0.0947, Final residual = 0.00639, No Iterations 2
ExecutionTime = 23.2 s  ClockTime = 23 s

forceCoeffs forceCoeffs1 write:
    Cm    = 0.612
    Cd    = 1.52
    Cl    = -2.08
    Cl(f) = -0.428
    Cl(r) = -1.65

forces forces_others write:
    sum of forces:
        pressure : (51.7 -15.7 36.1)
        viscous  : (0.543 0.0314 -0.0279)
        porous   : (0 0 0)
    sum of moments:
        pressure : (-5.57 -31 13.9)
        viscous  : (0.0106 0.113 0.286)
        porous   : (0 0 0)

forces forces_ns_rear_wing write:
    sum of forces:
        pressure : (47.7 1.63 -83.3)
        viscous  : (0.265 0.00238 0.0823)
        porous   : (0 0 0)
    sum of moments:
        pressure : (20.1 186 11.8)
        viscous  : (-0.0184 0.00679 0.0927)
        porous   : (0 0 0)

forces forces_mono write:
    sum of forces:
        pressure : (5.99 -2.62 -4.17)
        viscous  : (0.103 -0.0121 0.00854)
        porous   : (0 0 0)
    sum of moments:
        pressure : (0.815 3.9 -3.35)
        viscous  : (-0.000817 0.0051 0.0203)
        porous   : (0 0 0)

forces forces_ns_front_wing write:
    sum of forces:
        pressure : (14.5 -4.75 -48.9)
        viscous  : (0.253 0.00627 0.0424)
        porous   : (0 0 0)
    sum of moments:
        pressure : (14.4 -29.7 7.53)
        viscous  : (-0.0158 -0.0185 0.113)
        porous   : (0 0 0)

forces forces_dyfuzor write:
    sum of forces:
        pressure : (6.32 -5.4 -73.1)
        viscous  : (0.305 0.00793 -0.0045)
        porous   : (0 0 0)
    sum of moments:
        pressure : (15.8 92.3 -7.47)
        viscous  : (0.00384 -0.0514 0.121)
        porous   : (0 0 0)

Time = 4

smoothSolver:  Solving for Ux, Initial residual = 0.0156, Final residual = 0.00134, No Iterations 9
smoothSolver:  Solving for Uy, Initial residual = 0.0812, Final residual = 0.00787, No Iterations 8
smoothSolver:  Solving for Uz, Initial residual = 0.0234, Final residual = 0.00194, No Iterations 9
GAMG:  Solving for p, Initial residual = 0.0118, Final residual = 0.000107, No Iterations 4
time step continuity errors : sum local = 0.000601, global = -1e-05, cumulative = -6.08e-05
smoothSolver:  Solving for omega, Initial residual = 6.57e-05, Final residual = 8.96e-07, No Iterations 1
bounding omega, min: -4.83e+03 max: 3.26e+09 average: 5.93e+03
smoothSolver:  Solving for k, Initial residual = 0.0975, Final residual = 0.00548, No Iterations 1
ExecutionTime = 28.3 s  ClockTime = 28 s

forceCoeffs forceCoeffs1 write:
    Cm    = 0.485
    Cd    = 0.993
    Cl    = -1.9
    Cl(f) = -0.467
    Cl(r) = -1.44

forces forces_others write:
    sum of forces:
        pressure : (24.1 -14.2 34.7)
        viscous  : (0.524 0.0236 -0.0213)
        porous   : (0 0 0)
    sum of moments:
        pressure : (-6.6 -32 1.39)
        viscous  : (0.00905 0.103 0.261)
        porous   : (0 0 0)

forces forces_ns_rear_wing write:
    sum of forces:
        pressure : (39.1 1.9 -80.7)
        viscous  : (0.252 0.00185 0.0764)
        porous   : (0 0 0)
    sum of moments:
        pressure : (19.4 173 10.3)
        viscous  : (-0.0173 0.00732 0.088)
        porous   : (0 0 0)

forces forces_mono write:
    sum of forces:
        pressure : (3.28 -6.08 -4.66)
        viscous  : (0.0998 -0.0117 0.00933)
        porous   : (0 0 0)
    sum of moments:
        pressure : (0.87 2.43 -2.95)
        viscous  : (-0.00101 0.00506 0.0195)
        porous   : (0 0 0)

forces forces_ns_front_wing write:
    sum of forces:
        pressure : (11.7 -4.54 -45.2)
        viscous  : (0.248 0.0058 0.0421)
        porous   : (0 0 0)
    sum of moments:
        pressure : (13.1 -27.8 6.63)
        viscous  : (-0.0161 -0.0179 0.111)
        porous   : (0 0 0)

forces forces_dyfuzor write:
    sum of forces:
        pressure : (4.44 -4.41 -64.6)
        viscous  : (0.302 0.00732 -0.00616)
        porous   : (0 0 0)
    sum of moments:
        pressure : (14.3 77 -6.07)
        viscous  : (0.00423 -0.0476 0.118)
        porous   : (0 0 0)

Time = 5

smoothSolver:  Solving for Ux, Initial residual = 0.0102, Final residual = 0.000935, No Iterations 9
smoothSolver:  Solving for Uy, Initial residual = 0.0578, Final residual = 0.00502, No Iterations 9
smoothSolver:  Solving for Uz, Initial residual = 0.0163, Final residual = 0.00146, No Iterations 9
GAMG:  Solving for p, Initial residual = 0.011, Final residual = 8.43e-05, No Iterations 4
time step continuity errors : sum local = 0.000423, global = 1.57e-05, cumulative = -4.52e-05
smoothSolver:  Solving for omega, Initial residual = 5.93e-06, Final residual = 3.08e-07, No Iterations 2
bounding omega, min: -7.73e+03 max: 3.26e+09 average: 5.99e+03
smoothSolver:  Solving for k, Initial residual = 0.0731, Final residual = 0.00293, No Iterations 1
ExecutionTime = 33.6 s  ClockTime = 33 s

forceCoeffs forceCoeffs1 write:
    Cm    = 0.436
    Cd    = 0.806
    Cl    = -1.83
    Cl(f) = -0.48
    Cl(r) = -1.35

forces forces_others write:
    sum of forces:
        pressure : (13.9 -14.3 34.7)
        viscous  : (0.513 0.0234 -0.0156)
        porous   : (0 0 0)
    sum of moments:
        pressure : (-6.36 -33.7 -5.55)
        viscous  : (0.00677 0.0949 0.251)
        porous   : (0 0 0)

forces forces_ns_rear_wing write:
    sum of forces:
        pressure : (36.3 2.12 -80.5)
        viscous  : (0.249 0.000541 0.0657)
        porous   : (0 0 0)
    sum of moments:
        pressure : (19.4 170 10)
        viscous  : (-0.0144 0.0259 0.0847)
        porous   : (0 0 0)

forces forces_mono write:
    sum of forces:
        pressure : (2.24 -7.64 -4.97)
        viscous  : (0.0972 -0.0112 0.00976)
        porous   : (0 0 0)
    sum of moments:
        pressure : (0.843 1.61 -2.86)
        viscous  : (-0.00123 0.00515 0.0191)
        porous   : (0 0 0)

forces forces_ns_front_wing write:
    sum of forces:
        pressure : (11 -4.74 -43.7)
        viscous  : (0.246 0.00493 0.0405)
        porous   : (0 0 0)
    sum of moments:
        pressure : (12.6 -26.9 6.57)
        viscous  : (-0.016 -0.018 0.11)
        porous   : (0 0 0)

forces forces_dyfuzor write:
    sum of forces:
        pressure : (3.8 -3.86 -60.8)
        viscous  : (0.3 0.00696 -0.00696)
        porous   : (0 0 0)
    sum of moments:
        pressure : (13.8 70.2 -5.25)
        viscous  : (0.00448 -0.0455 0.116)
        porous   : (0 0 0)

Time = 6

smoothSolver:  Solving for Ux, Initial residual = 0.0083, Final residual = 0.000802, No Iterations 9
smoothSolver:  Solving for Uy, Initial residual = 0.0467, Final residual = 0.00444, No Iterations 9
smoothSolver:  Solving for Uz, Initial residual = 0.0145, Final residual = 0.00136, No Iterations 9
GAMG:  Solving for p, Initial residual = 0.0103, Final residual = 7.55e-05, No Iterations 4
time step continuity errors : sum local = 0.000367, global = 3.28e-05, cumulative = -1.23e-05
smoothSolver:  Solving for omega, Initial residual = 2.01e-06, Final residual = 1.34e-07, No Iterations 3
bounding omega, min: -9.33e+03 max: 3.26e+09 average: 6.05e+03
smoothSolver:  Solving for k, Initial residual = 0.0409, Final residual = 0.00183, No Iterations 1
ExecutionTime = 38.9 s  ClockTime = 39 s

forceCoeffs forceCoeffs1 write:
    Cm    = 0.432
    Cd    = 0.772
    Cl    = -1.84
    Cl(f) = -0.49
    Cl(r) = -1.35

forces forces_others write:
    sum of forces:
        pressure : (11.4 -14.5 35.1)
        viscous  : (0.5 0.0286 -0.0117)
        porous   : (0 0 0)
    sum of moments:
        pressure : (-5.8 -35.1 -8.43)
        viscous  : (0.00496 0.0899 0.247)
        porous   : (0 0 0)

forces forces_ns_rear_wing write:
    sum of forces:
        pressure : (36.3 2.23 -82.5)
        viscous  : (0.25 -0.00074 0.0585)
        porous   : (0 0 0)
    sum of moments:
        pressure : (19.9 174 10.3)
        viscous  : (-0.0121 0.0407 0.0824)
        porous   : (0 0 0)

forces forces_mono write:
    sum of forces:
        pressure : (1.96 -7.94 -4.93)
        viscous  : (0.0947 -0.0109 0.0103)
        porous   : (0 0 0)
    sum of moments:
        pressure : (0.792 1.19 -3)
        viscous  : (-0.00146 0.00512 0.0187)
        porous   : (0 0 0)

forces forces_ns_front_wing write:
    sum of forces:
        pressure : (11 -5.03 -43.9)
        viscous  : (0.245 0.0041 0.039)
        porous   : (0 0 0)
    sum of moments:
        pressure : (12.6 -27 6.79)
        viscous  : (-0.0158 -0.0179 0.11)
        porous   : (0 0 0)

forces forces_dyfuzor write:
    sum of forces:
        pressure : (3.73 -3.62 -60.1)
        viscous  : (0.298 0.00748 -0.00693)
        porous   : (0 0 0)
    sum of moments:
        pressure : (13.8 68.8 -4.9)
        viscous  : (0.00463 -0.045 0.115)
        porous   : (0 0 0)

Time = 7

smoothSolver:  Solving for Ux, Initial residual = 0.00746, Final residual = 0.0006, No Iterations 10
smoothSolver:  Solving for Uy, Initial residual = 0.0403, Final residual = 0.00324, No Iterations 10
smoothSolver:  Solving for Uz, Initial residual = 0.0139, Final residual = 0.00135, No Iterations 9
GAMG:  Solving for p, Initial residual = 0.00944, Final residual = 6.96e-05, No Iterations 4
time step continuity errors : sum local = 0.00034, global = 3.69e-05, cumulative = 2.45e-05
smoothSolver:  Solving for omega, Initial residual = 1.58e-06, Final residual = 1.23e-07, No Iterations 3
bounding omega, min: -1.08e+04 max: 3.26e+09 average: 6.14e+03
smoothSolver:  Solving for k, Initial residual = 0.0219, Final residual = 0.00133, No Iterations 1
ExecutionTime = 44.3 s  ClockTime = 44 s

forceCoeffs forceCoeffs1 write:
    Cm    = 0.442
    Cd    = 0.786
    Cl    = -1.89
    Cl(f) = -0.501
    Cl(r) = -1.38

forces forces_others write:
    sum of forces:
        pressure : (11.6 -15.1 36.2)
        viscous  : (0.487 0.0352 -0.00861)
        porous   : (0 0 0)
    sum of moments:
        pressure : (-5.36 -36.7 -9.53)
        viscous  : (0.00365 0.0863 0.244)
        porous   : (0 0 0)

forces forces_ns_rear_wing write:
    sum of forces:
        pressure : (37 2.43 -85.9)
        viscous  : (0.255 -0.00221 0.0547)
        porous   : (0 0 0)
    sum of moments:
        pressure : (20.6 181 10.9)
        viscous  : (-0.0103 0.0521 0.0809)
        porous   : (0 0 0)

forces forces_mono write:
    sum of forces:
        pressure : (1.92 -7.54 -4.39)
        viscous  : (0.0922 -0.0106 0.0108)
        porous   : (0 0 0)
    sum of moments:
        pressure : (0.708 0.85 -3.3)
        viscous  : (-0.00171 0.00503 0.0184)
        porous   : (0 0 0)

forces forces_ns_front_wing write:
    sum of forces:
        pressure : (11.2 -5.32 -45.3)
        viscous  : (0.245 0.00351 0.0382)
        porous   : (0 0 0)
    sum of moments:
        pressure : (13 -27.9 7.04)
        viscous  : (-0.0156 -0.0176 0.11)
        porous   : (0 0 0)

forces forces_dyfuzor write:
    sum of forces:
        pressure : (3.83 -3.48 -60.2)
        viscous  : (0.295 0.00842 -0.00658)
        porous   : (0 0 0)
    sum of moments:
        pressure : (14 69.2 -4.68)
        viscous  : (0.00475 -0.045 0.115)
        porous   : (0 0 0)

Time = 8

smoothSolver:  Solving for Ux, Initial residual = 0.0071, Final residual = 0.00059, No Iterations 10
smoothSolver:  Solving for Uy, Initial residual = 0.0361, Final residual = 0.00299, No Iterations 10
smoothSolver:  Solving for Uz, Initial residual = 0.0132, Final residual = 0.00105, No Iterations 10
GAMG:  Solving for p, Initial residual = 0.00872, Final residual = 6.5e-05, No Iterations 4
time step continuity errors : sum local = 0.000323, global = 4.02e-05, cumulative = 6.47e-05
smoothSolver:  Solving for omega, Initial residual = 1.28e-06, Final residual = 1.14e-07, No Iterations 3
bounding omega, min: -1.28e+04 max: 3.26e+09 average: 6.25e+03
smoothSolver:  Solving for k, Initial residual = 0.0116, Final residual = 0.000993, No Iterations 1
bounding k, min: -4.26e-05 max: 110 average: 0.00852
ExecutionTime = 49.8 s  ClockTime = 50 s

forceCoeffs forceCoeffs1 write:
    Cm    = 0.45
    Cd    = 0.807
    Cl    = -1.93
    Cl(f) = -0.514
    Cl(r) = -1.41

forces forces_others write:
    sum of forces:
        pressure : (12.4 -16 37.8)
        viscous  : (0.478 0.041 -0.00641)
        porous   : (0 0 0)
    sum of moments:
        pressure : (-5.2 -38.4 -9.96)
        viscous  : (0.00272 0.0845 0.245)
        porous   : (0 0 0)

forces forces_ns_rear_wing write:
    sum of forces:
        pressure : (37.5 2.74 -89.4)
        viscous  : (0.263 -0.00407 0.0546)
        porous   : (0 0 0)
    sum of moments:
        pressure : (21.3 187 11.7)
        viscous  : (-0.00897 0.0583 0.0796)
        porous   : (0 0 0)

forces forces_mono write:
    sum of forces:
        pressure : (1.91 -7.18 -3.52)
        viscous  : (0.0898 -0.0104 0.0114)
        porous   : (0 0 0)
    sum of moments:
        pressure : (0.613 0.451 -3.69)
        viscous  : (-0.00196 0.00489 0.018)
        porous   : (0 0 0)

forces forces_ns_front_wing write:
    sum of forces:
        pressure : (11.4 -5.56 -47)
        viscous  : (0.246 0.00317 0.0396)
        porous   : (0 0 0)
    sum of moments:
        pressure : (13.5 -29 7.23)
        viscous  : (-0.0162 -0.0169 0.111)
        porous   : (0 0 0)

forces forces_dyfuzor write:
    sum of forces:
        pressure : (3.94 -3.35 -60.4)
        viscous  : (0.296 0.00962 -0.00665)
        porous   : (0 0 0)
    sum of moments:
        pressure : (14.1 69.9 -4.5)
        viscous  : (0.0051 -0.0448 0.116)
        porous   : (0 0 0)

Time = 9

smoothSolver:  Solving for Ux, Initial residual = 0.00694, Final residual = 0.000584, No Iterations 10
smoothSolver:  Solving for Uy, Initial residual = 0.0334, Final residual = 0.0028, No Iterations 10
smoothSolver:  Solving for Uz, Initial residual = 0.0126, Final residual = 0.00101, No Iterations 10
GAMG:  Solving for p, Initial residual = 0.00812, Final residual = 6.03e-05, No Iterations 4
time step continuity errors : sum local = 0.000303, global = 4.49e-05, cumulative = 0.00011
smoothSolver:  Solving for omega, Initial residual = 1.22e-06, Final residual = 1.08e-07, No Iterations 3
bounding omega, min: -1.61e+04 max: 3.26e+09 average: 6.39e+03
smoothSolver:  Solving for k, Initial residual = 0.0074, Final residual = 0.000302, No Iterations 2
bounding k, min: -3.84e-05 max: 224 average: 0.0172
ExecutionTime = 55.3 s  ClockTime = 55 s

forceCoeffs forceCoeffs1 write:
    Cm    = 0.453
    Cd    = 0.82
    Cl    = -1.96
    Cl(f) = -0.529
    Cl(r) = -1.43

forces forces_others write:
    sum of forces:
        pressure : (13.1 -17.1 39.3)
        viscous  : (0.474 0.0456 -0.00578)
        porous   : (0 0 0)
    sum of moments:
        pressure : (-5.21 -39.8 -10.4)
        viscous  : (0.00229 0.0849 0.247)
        porous   : (0 0 0)

forces forces_ns_rear_wing write:
    sum of forces:
        pressure : (37.6 3.12 -92.3)
        viscous  : (0.276 -0.00601 0.0583)
        porous   : (0 0 0)
    sum of moments:
        pressure : (21.8 192 12.4)
        viscous  : (-0.00853 0.0612 0.0798)
        porous   : (0 0 0)

forces forces_mono write:
    sum of forces:
        pressure : (1.88 -7.04 -2.42)
        viscous  : (0.0875 -0.0105 0.012)
        porous   : (0 0 0)
    sum of moments:
        pressure : (0.501 -0.0751 -4.09)
        viscous  : (-0.00212 0.00474 0.0175)
        porous   : (0 0 0)

forces forces_ns_front_wing write:
    sum of forces:
        pressure : (11.5 -5.76 -48.6)
        viscous  : (0.252 0.00278 0.0425)
        porous   : (0 0 0)
    sum of moments:
        pressure : (14 -30.1 7.36)
        viscous  : (-0.0172 -0.0162 0.114)
        porous   : (0 0 0)

forces forces_dyfuzor write:
    sum of forces:
        pressure : (4.03 -3.22 -60.5)
        viscous  : (0.299 0.0109 -0.00722)
        porous   : (0 0 0)
    sum of moments:
        pressure : (14.2 70.3 -4.33)
        viscous  : (0.00565 -0.0446 0.118)
        porous   : (0 0 0)

Time = 10

smoothSolver:  Solving for Ux, Initial residual = 0.00687, Final residual = 0.000576, No Iterations 10
smoothSolver:  Solving for Uy, Initial residual = 0.0312, Final residual = 0.00264, No Iterations 10
smoothSolver:  Solving for Uz, Initial residual = 0.0123, Final residual = 0.000992, No Iterations 10
GAMG:  Solving for p, Initial residual = 0.00766, Final residual = 5.52e-05, No Iterations 4
time step continuity errors : sum local = 0.000277, global = 4.37e-05, cumulative = 0.000153
smoothSolver:  Solving for omega, Initial residual = 1.15e-06, Final residual = 1.04e-07, No Iterations 3
bounding omega, min: -1.92e+04 max: 3.26e+09 average: 6.54e+03
smoothSolver:  Solving for k, Initial residual = 0.00517, Final residual = 0.000232, No Iterations 2
bounding k, min: -0.00124 max: 455 average: 0.0292
ExecutionTime = 60.8 s  ClockTime = 61 s

forceCoeffs forceCoeffs1 write:
    Cm    = 0.451
    Cd    = 0.823
    Cl    = -1.99
    Cl(f) = -0.546
    Cl(r) = -1.45

forces forces_others write:
    sum of forces:
        pressure : (13.5 -18.2 40.2)
        viscous  : (0.472 0.0492 -0.00578)
        porous   : (0 0 0)
    sum of moments:
        pressure : (-5.23 -40.7 -10.8)
        viscous  : (0.00213 0.0857 0.25)
        porous   : (0 0 0)

forces forces_ns_rear_wing write:
    sum of forces:
        pressure : (37.4 3.52 -94.6)
        viscous  : (0.285 -0.00753 0.065)
        porous   : (0 0 0)
    sum of moments:
        pressure : (22.2 196 13.1)
        viscous  : (-0.00894 0.054 0.0789)
        porous   : (0 0 0)

forces forces_mono write:
    sum of forces:
        pressure : (1.87 -6.7 -1.14)
        viscous  : (0.0851 -0.0108 0.0126)
        porous   : (0 0 0)
    sum of moments:
        pressure : (0.336 -0.678 -4.27)
        viscous  : (-0.00225 0.00444 0.0169)
        porous   : (0 0 0)

forces forces_ns_front_wing write:
    sum of forces:
        pressure : (11.4 -5.94 -50)
        viscous  : (0.258 0.00238 0.0474)
        porous   : (0 0 0)
    sum of moments:
        pressure : (14.4 -31.1 7.43)
        viscous  : (-0.0189 -0.0152 0.117)
        porous   : (0 0 0)

forces forces_dyfuzor write:
    sum of forces:
        pressure : (4.1 -3.11 -60.4)
        viscous  : (0.302 0.0119 -0.00791)
        porous   : (0 0 0)
    sum of moments:
        pressure : (14.2 70.5 -4.18)
        viscous  : (0.00606 -0.0454 0.121)
        porous   : (0 0 0)

Time = 11

smoothSolver:  Solving for Ux, Initial residual = 0.00683, Final residual = 0.000567, No Iterations 10
smoothSolver:  Solving for Uy, Initial residual = 0.0298, Final residual = 0.00253, No Iterations 10
smoothSolver:  Solving for Uz, Initial residual = 0.0123, Final residual = 0.000999, No Iterations 10
GAMG:  Solving for p, Initial residual = 0.0075, Final residual = 5.22e-05, No Iterations 4
time step continuity errors : sum local = 0.000256, global = 3.98e-05, cumulative = 0.000193
smoothSolver:  Solving for omega, Initial residual = 1.13e-06, Final residual = 1.01e-07, No Iterations 3
bounding omega, min: -2.1e+04 max: 3.26e+09 average: 6.64e+03
smoothSolver:  Solving for k, Initial residual = 0.00352, Final residual = 0.000183, No Iterations 2
bounding k, min: -0.000754 max: 488 average: 0.0427
ExecutionTime = 66.3 s  ClockTime = 66 s

forceCoeffs forceCoeffs1 write:
    Cm    = 0.445
    Cd    = 0.815
    Cl    = -2.02
    Cl(f) = -0.563
    Cl(r) = -1.45

forces forces_others write:
    sum of forces:
        pressure : (13.5 -19.2 40.8)
        viscous  : (0.473 0.0518 -0.0047)
        porous   : (0 0 0)
    sum of moments:
        pressure : (-5.29 -41.1 -11.2)
        viscous  : (0.00186 0.0841 0.253)
        porous   : (0 0 0)

forces forces_ns_rear_wing write:
    sum of forces:
        pressure : (36.8 3.93 -96.2)
        viscous  : (0.286 -0.00837 0.0682)
        porous   : (0 0 0)
    sum of moments:
        pressure : (22.3 198 13.7)
        viscous  : (-0.00886 0.047 0.0783)
        porous   : (0 0 0)

forces forces_mono write:
    sum of forces:
        pressure : (1.88 -6.1 0.184)
        viscous  : (0.083 -0.011 0.0137)
        porous   : (0 0 0)
    sum of moments:
        pressure : (0.136 -1.26 -4.22)
        viscous  : (-0.00249 0.00388 0.0163)
        porous   : (0 0 0)

forces forces_ns_front_wing write:
    sum of forces:
        pressure : (11.3 -6.1 -51.1)
        viscous  : (0.262 0.00213 0.0504)
        porous   : (0 0 0)
    sum of moments:
        pressure : (14.8 -31.9 7.48)
        viscous  : (-0.0201 -0.0149 0.12)
        porous   : (0 0 0)

forces forces_dyfuzor write:
    sum of forces:
        pressure : (4.14 -3.04 -60.1)
        viscous  : (0.306 0.0128 -0.00821)
        porous   : (0 0 0)
    sum of moments:
        pressure : (14.2 70.3 -4.11)
        viscous  : (0.00633 -0.0471 0.123)
        porous   : (0 0 0)

Time = 12

smoothSolver:  Solving for Ux, Initial residual = 0.00679, Final residual = 0.000557, No Iterations 10
smoothSolver:  Solving for Uy, Initial residual = 0.0291, Final residual = 0.00247, No Iterations 10
smoothSolver:  Solving for Uz, Initial residual = 0.0127, Final residual = 0.00103, No Iterations 10
GAMG:  Solving for p, Initial residual = 0.00772, Final residual = 5.19e-05, No Iterations 4
time step continuity errors : sum local = 0.000246, global = 3.5e-05, cumulative = 0.000228
smoothSolver:  Solving for omega, Initial residual = 1.07e-06, Final residual = 9.83e-08, No Iterations 3
bounding omega, min: -2.13e+04 max: 3.26e+09 average: 6.66e+03
smoothSolver:  Solving for k, Initial residual = 0.00264, Final residual = 0.000156, No Iterations 2
bounding k, min: -0.000191 max: 557 average: 0.0557
ExecutionTime = 71.8 s  ClockTime = 72 s

forceCoeffs forceCoeffs1 write:
    Cm    = 0.436
    Cd    = 0.803
    Cl    = -2.03
    Cl(f) = -0.579
    Cl(r) = -1.45

forces forces_others write:
    sum of forces:
        pressure : (13.3 -20 41)
        viscous  : (0.474 0.0527 -0.00256)
        porous   : (0 0 0)
    sum of moments:
        pressure : (-5.4 -41.1 -11.5)
        viscous  : (0.00129 0.0812 0.255)
        porous   : (0 0 0)

forces forces_ns_rear_wing write:
    sum of forces:
        pressure : (36.1 4.29 -97.3)
        viscous  : (0.289 -0.00872 0.0696)
        porous   : (0 0 0)
    sum of moments:
        pressure : (22.4 199 14.2)
        viscous  : (-0.00884 0.0441 0.0789)
        porous   : (0 0 0)

forces forces_mono write:
    sum of forces:
        pressure : (1.93 -5.35 1.37)
        viscous  : (0.0816 -0.0112 0.0151)
        porous   : (0 0 0)
    sum of moments:
        pressure : (-0.0573 -1.72 -4.03)
        viscous  : (-0.00286 0.00311 0.0161)
        porous   : (0 0 0)

forces forces_ns_front_wing write:
    sum of forces:
        pressure : (11.1 -6.25 -52)
        viscous  : (0.269 0.00221 0.0519)
        porous   : (0 0 0)
    sum of moments:
        pressure : (15 -32.7 7.5)
        viscous  : (-0.0208 -0.0152 0.124)
        porous   : (0 0 0)

forces forces_dyfuzor write:
    sum of forces:
        pressure : (4.15 -3.02 -59.7)
        viscous  : (0.312 0.0139 -0.00761)
        porous   : (0 0 0)
    sum of moments:
        pressure : (14.1 70 -4.14)
        viscous  : (0.00645 -0.049 0.126)
        porous   : (0 0 0)

Time = 13

smoothSolver:  Solving for Ux, Initial residual = 0.00676, Final residual = 0.000546, No Iterations 10
smoothSolver:  Solving for Uy, Initial residual = 0.0291, Final residual = 0.00245, No Iterations 10
smoothSolver:  Solving for Uz, Initial residual = 0.0133, Final residual = 0.00107, No Iterations 10
GAMG:  Solving for p, Initial residual = 0.00815, Final residual = 5.34e-05, No Iterations 4
time step continuity errors : sum local = 0.000244, global = 3.03e-05, cumulative = 0.000258
smoothSolver:  Solving for omega, Initial residual = 1.04e-06, Final residual = 9.59e-08, No Iterations 3
bounding omega, min: -2.07e+04 max: 3.26e+09 average: 6.6e+03
smoothSolver:  Solving for k, Initial residual = 0.00217, Final residual = 0.000144, No Iterations 2
bounding k, min: -0.000485 max: 562 average: 0.0678
ExecutionTime = 77.3 s  ClockTime = 77 s

forceCoeffs forceCoeffs1 write:
    Cm    = 0.428
    Cd    = 0.788
    Cl    = -2.04
    Cl(f) = -0.593
    Cl(r) = -1.45

forces forces_others write:
    sum of forces:
        pressure : (13 -20.6 41)
        viscous  : (0.478 0.0535 -0.00069)
        porous   : (0 0 0)
    sum of moments:
        pressure : (-5.55 -41 -11.7)
        viscous  : (0.000912 0.0785 0.26)
        porous   : (0 0 0)

forces forces_ns_rear_wing write:
    sum of forces:
        pressure : (35.4 4.6 -98)
        viscous  : (0.293 -0.00895 0.0704)
        porous   : (0 0 0)
    sum of moments:
        pressure : (22.4 200 14.5)
        viscous  : (-0.00873 0.0433 0.0802)
        porous   : (0 0 0)

forces forces_mono write:
    sum of forces:
        pressure : (2.01 -4.71 2.32)
        viscous  : (0.0804 -0.0113 0.0165)
        porous   : (0 0 0)
    sum of moments:
        pressure : (-0.213 -2.05 -3.87)
        viscous  : (-0.00323 0.0024 0.0159)
        porous   : (0 0 0)

forces forces_ns_front_wing write:
    sum of forces:
        pressure : (10.9 -6.37 -52.8)
        viscous  : (0.276 0.00236 0.0525)
        porous   : (0 0 0)
    sum of moments:
        pressure : (15.2 -33.3 7.51)
        viscous  : (-0.0211 -0.0161 0.128)
        porous   : (0 0 0)

forces forces_dyfuzor write:
    sum of forces:
        pressure : (4.15 -3.05 -59.1)
        viscous  : (0.318 0.0153 -0.00678)
        porous   : (0 0 0)
    sum of moments:
        pressure : (14 69.6 -4.26)
        viscous  : (0.00661 -0.0508 0.13)
        porous   : (0 0 0)

Time = 14

smoothSolver:  Solving for Ux, Initial residual = 0.00666, Final residual = 0.000533, No Iterations 10
smoothSolver:  Solving for Uy, Initial residual = 0.0295, Final residual = 0.00246, No Iterations 10
smoothSolver:  Solving for Uz, Initial residual = 0.014, Final residual = 0.00138, No Iterations 9
GAMG:  Solving for p, Initial residual = 0.00866, Final residual = 5.56e-05, No Iterations 4
time step continuity errors : sum local = 0.000247, global = 2.28e-05, cumulative = 0.000281
smoothSolver:  Solving for omega, Initial residual = 1.03e-06, Final residual = 9.4e-08, No Iterations 3
bounding omega, min: -2.01e+04 max: 3.26e+09 average: 6.52e+03
smoothSolver:  Solving for k, Initial residual = 0.0019, Final residual = 0.000139, No Iterations 2
bounding k, min: -0.000406 max: 547 average: 0.0808
ExecutionTime = 82.8 s  ClockTime = 83 s

forceCoeffs forceCoeffs1 write:
    Cm    = 0.42
    Cd    = 0.776
    Cl    = -2.05
    Cl(f) = -0.604
    Cl(r) = -1.45

forces forces_others write:
    sum of forces:
        pressure : (12.7 -21 40.9)
        viscous  : (0.483 0.054 0.00046)
        porous   : (0 0 0)
    sum of moments:
        pressure : (-5.71 -40.7 -11.9)
        viscous  : (0.00112 0.0768 0.265)
        porous   : (0 0 0)

forces forces_ns_rear_wing write:
    sum of forces:
        pressure : (34.9 4.8 -98.6)
        viscous  : (0.296 -0.00955 0.0718)
        porous   : (0 0 0)
    sum of moments:
        pressure : (22.5 200 14.8)
        viscous  : (-0.00869 0.0409 0.0808)
        porous   : (0 0 0)

forces forces_mono write:
    sum of forces:
        pressure : (2.15 -4.26 3.02)
        viscous  : (0.0793 -0.0114 0.0179)
        porous   : (0 0 0)
    sum of moments:
        pressure : (-0.324 -2.24 -3.79)
        viscous  : (-0.00362 0.0017 0.0157)
        porous   : (0 0 0)

forces forces_ns_front_wing write:
    sum of forces:
        pressure : (10.8 -6.47 -53.5)
        viscous  : (0.283 0.00273 0.053)
        porous   : (0 0 0)
    sum of moments:
        pressure : (15.4 -33.8 7.52)
        viscous  : (-0.0214 -0.0171 0.131)
        porous   : (0 0 0)

forces forces_dyfuzor write:
    sum of forces:
        pressure : (4.13 -3.1 -58.4)
        viscous  : (0.324 0.0166 -0.00678)
        porous   : (0 0 0)
    sum of moments:
        pressure : (13.9 69.1 -4.43)
        viscous  : (0.00696 -0.0522 0.134)
        porous   : (0 0 0)

Time = 15

smoothSolver:  Solving for Ux, Initial residual = 0.0065, Final residual = 0.000649, No Iterations 9
smoothSolver:  Solving for Uy, Initial residual = 0.03, Final residual = 0.00245, No Iterations 10
smoothSolver:  Solving for Uz, Initial residual = 0.0142, Final residual = 0.00136, No Iterations 9
GAMG:  Solving for p, Initial residual = 0.00919, Final residual = 5.73e-05, No Iterations 4
time step continuity errors : sum local = 0.000252, global = 1.58e-05, cumulative = 0.000297
smoothSolver:  Solving for omega, Initial residual = 1e-06, Final residual = 9.21e-08, No Iterations 3
bounding omega, min: -1.97e+04 max: 3.26e+09 average: 6.46e+03
smoothSolver:  Solving for k, Initial residual = 0.00167, Final residual = 0.000137, No Iterations 2
bounding k, min: -0.000841 max: 541 average: 0.0944
ExecutionTime = 88.2 s  ClockTime = 88 s

forceCoeffs forceCoeffs1 write:
    Cm    = 0.415
    Cd    = 0.768
    Cl    = -2.06
    Cl(f) = -0.613
    Cl(r) = -1.44

forces forces_others write:
    sum of forces:
        pressure : (12.4 -21.2 40.8)
        viscous  : (0.489 0.0549 0.00204)
        porous   : (0 0 0)
    sum of moments:
        pressure : (-5.89 -40.4 -12)
        viscous  : (0.00127 0.0751 0.27)
        porous   : (0 0 0)

forces forces_ns_rear_wing write:
    sum of forces:
        pressure : (34.6 4.85 -99.3)
        viscous  : (0.299 -0.00989 0.074)
        porous   : (0 0 0)
    sum of moments:
        pressure : (22.7 201 14.8)
        viscous  : (-0.009 0.0372 0.0826)
        porous   : (0 0 0)

forces forces_mono write:
    sum of forces:
        pressure : (2.35 -4 3.61)
        viscous  : (0.0782 -0.0114 0.0192)
        porous   : (0 0 0)
    sum of moments:
        pressure : (-0.403 -2.37 -3.82)
        viscous  : (-0.00403 0.000972 0.0156)
        porous   : (0 0 0)

forces forces_ns_front_wing write:
    sum of forces:
        pressure : (10.7 -6.54 -54.1)
        viscous  : (0.291 0.00283 0.054)
        porous   : (0 0 0)
    sum of moments:
        pressure : (15.6 -34.4 7.53)
        viscous  : (-0.022 -0.0178 0.136)
        porous   : (0 0 0)

forces forces_dyfuzor write:
    sum of forces:
        pressure : (4.11 -3.15 -57.7)
        viscous  : (0.331 0.0176 -0.00696)
        porous   : (0 0 0)
    sum of moments:
        pressure : (13.7 68.4 -4.58)
        viscous  : (0.00734 -0.0536 0.138)
        porous   : (0 0 0)

Time = 16

smoothSolver:  Solving for Ux, Initial residual = 0.00646, Final residual = 0.000633, No Iterations 9
smoothSolver:  Solving for Uy, Initial residual = 0.0304, Final residual = 0.00242, No Iterations 10
smoothSolver:  Solving for Uz, Initial residual = 0.0139, Final residual = 0.00128, No Iterations 9
GAMG:  Solving for p, Initial residual = 0.0097, Final residual = 5.73e-05, No Iterations 4
time step continuity errors : sum local = 0.000252, global = 8e-06, cumulative = 0.000305
smoothSolver:  Solving for omega, Initial residual = 9.76e-07, Final residual = 8.97e-08, No Iterations 3
bounding omega, min: -1.93e+04 max: 3.26e+09 average: 6.46e+03
smoothSolver:  Solving for k, Initial residual = 0.00159, Final residual = 0.000134, No Iterations 2
bounding k, min: -0.00424 max: 541 average: 0.108
ExecutionTime = 93.7 s  ClockTime = 94 s

forceCoeffs forceCoeffs1 write:
    Cm    = 0.412
    Cd    = 0.766
    Cl    = -2.06
    Cl(f) = -0.619
    Cl(r) = -1.44

forces forces_others write:
    sum of forces:
        pressure : (12.3 -21.5 40.8)
        viscous  : (0.494 0.0562 0.00356)
        porous   : (0 0 0)
    sum of moments:
        pressure : (-6.07 -40.3 -11.9)
        viscous  : (0.00137 0.074 0.277)
        porous   : (0 0 0)

forces forces_ns_rear_wing write:
    sum of forces:
        pressure : (34.7 4.79 -100)
        viscous  : (0.307 -0.01 0.0759)
        porous   : (0 0 0)
    sum of moments:
        pressure : (22.9 202 14.7)
        viscous  : (-0.00929 0.0378 0.0856)
        porous   : (0 0 0)

forces forces_mono write:
    sum of forces:
        pressure : (2.63 -3.79 4.16)
        viscous  : (0.0772 -0.0115 0.0203)
        porous   : (0 0 0)
    sum of moments:
        pressure : (-0.469 -2.47 -3.91)
        viscous  : (-0.00437 0.000358 0.0154)
        porous   : (0 0 0)

forces forces_ns_front_wing write:
    sum of forces:
        pressure : (10.6 -6.58 -54.7)
        viscous  : (0.3 0.00282 0.0548)
        porous   : (0 0 0)
    sum of moments:
        pressure : (15.7 -34.8 7.54)
        viscous  : (-0.0224 -0.0185 0.14)
        porous   : (0 0 0)

forces forces_dyfuzor write:
    sum of forces:
        pressure : (4.09 -3.19 -56.8)
        viscous  : (0.338 0.0182 -0.0071)
        porous   : (0 0 0)
    sum of moments:
        pressure : (13.5 67.7 -4.7)
        viscous  : (0.00767 -0.0547 0.142)
        porous   : (0 0 0)

Time = 17

smoothSolver:  Solving for Ux, Initial residual = 0.00664, Final residual = 0.000625, No Iterations 9
smoothSolver:  Solving for Uy, Initial residual = 0.0306, Final residual = 0.00298, No Iterations 9
smoothSolver:  Solving for Uz, Initial residual = 0.0137, Final residual = 0.00119, No Iterations 9
GAMG:  Solving for p, Initial residual = 0.0101, Final residual = 5.57e-05, No Iterations 4
time step continuity errors : sum local = 0.000247, global = 4.24e-06, cumulative = 0.000309
smoothSolver:  Solving for omega, Initial residual = 9.68e-07, Final residual = 8.75e-08, No Iterations 3
bounding omega, min: -1.88e+04 max: 3.26e+09 average: 6.51e+03
smoothSolver:  Solving for k, Initial residual = 0.00149, Final residual = 0.000131, No Iterations 2
bounding k, min: -0.00345 max: 543 average: 0.123
ExecutionTime = 99.1 s  ClockTime = 99 s

forceCoeffs forceCoeffs1 write:
    Cm    = 0.412
    Cd    = 0.77
    Cl    = -2.07
    Cl(f) = -0.622
    Cl(r) = -1.45

forces forces_others write:
    sum of forces:
        pressure : (12.3 -21.8 40.9)
        viscous  : (0.499 0.0574 0.00426)
        porous   : (0 0 0)
    sum of moments:
        pressure : (-6.23 -40.4 -11.8)
        viscous  : (0.00195 0.0745 0.285)
        porous   : (0 0 0)

forces forces_ns_rear_wing write:
    sum of forces:
        pressure : (35 4.67 -101)
        viscous  : (0.315 -0.00998 0.0767)
        porous   : (0 0 0)
    sum of moments:
        pressure : (23.3 204 14.6)
        viscous  : (-0.00937 0.0409 0.089)
        porous   : (0 0 0)

forces forces_mono write:
    sum of forces:
        pressure : (2.92 -3.55 4.75)
        viscous  : (0.0763 -0.0118 0.021)
        porous   : (0 0 0)
    sum of moments:
        pressure : (-0.532 -2.57 -4.05)
        viscous  : (-0.00455 6.62e-06 0.0149)
        porous   : (0 0 0)

forces forces_ns_front_wing write:
    sum of forces:
        pressure : (10.5 -6.59 -55.3)
        viscous  : (0.307 0.00274 0.0553)
        porous   : (0 0 0)
    sum of moments:
        pressure : (15.9 -35.3 7.54)
        viscous  : (-0.0227 -0.0193 0.145)
        porous   : (0 0 0)

forces forces_dyfuzor write:
    sum of forces:
        pressure : (4.07 -3.22 -56)
        viscous  : (0.342 0.0184 -0.00647)
        porous   : (0 0 0)
    sum of moments:
        pressure : (13.3 67 -4.81)
        viscous  : (0.00761 -0.0565 0.144)
        porous   : (0 0 0)

Time = 18

smoothSolver:  Solving for Ux, Initial residual = 0.00678, Final residual = 0.000608, No Iterations 9
smoothSolver:  Solving for Uy, Initial residual = 0.0302, Final residual = 0.00288, No Iterations 9
smoothSolver:  Solving for Uz, Initial residual = 0.0133, Final residual = 0.00108, No Iterations 9
GAMG:  Solving for p, Initial residual = 0.0105, Final residual = 5.26e-05, No Iterations 4
time step continuity errors : sum local = 0.000237, global = 7.69e-06, cumulative = 0.000317
smoothSolver:  Solving for omega, Initial residual = 9.7e-07, Final residual = 8.55e-08, No Iterations 3
bounding omega, min: -1.88e+04 max: 3.26e+09 average: 6.58e+03
smoothSolver:  Solving for k, Initial residual = 0.00133, Final residual = 0.000125, No Iterations 2
bounding k, min: -0.00565 max: 632 average: 0.137
ExecutionTime = 104 s  ClockTime = 105 s

forceCoeffs forceCoeffs1 write:
    Cm    = 0.412
    Cd    = 0.776
    Cl    = -2.07
    Cl(f) = -0.622
    Cl(r) = -1.45

forces forces_others write:
    sum of forces:
        pressure : (12.4 -22.1 41.1)
        viscous  : (0.504 0.0585 0.00407)
        porous   : (0 0 0)
    sum of moments:
        pressure : (-6.37 -40.8 -11.6)
        viscous  : (0.0028 0.0764 0.291)
        porous   : (0 0 0)

forces forces_ns_rear_wing write:
    sum of forces:
        pressure : (35.5 4.48 -102)
        viscous  : (0.323 -0.00983 0.0772)
        porous   : (0 0 0)
    sum of moments:
        pressure : (23.6 206 14.4)
        viscous  : (-0.00928 0.0442 0.0924)
        porous   : (0 0 0)

forces forces_mono write:
    sum of forces:
        pressure : (3.2 -3.35 5.38)
        viscous  : (0.0754 -0.0124 0.0213)
        porous   : (0 0 0)
    sum of moments:
        pressure : (-0.595 -2.7 -4.21)
        viscous  : (-0.00454 -6.24e-05 0.0144)
        porous   : (0 0 0)

forces forces_ns_front_wing write:
    sum of forces:
        pressure : (10.5 -6.59 -55.9)
        viscous  : (0.314 0.00258 0.0559)
        porous   : (0 0 0)
    sum of moments:
        pressure : (16 -35.7 7.52)
        viscous  : (-0.023 -0.0201 0.148)
        porous   : (0 0 0)

forces forces_dyfuzor write:
    sum of forces:
        pressure : (4.07 -3.26 -54.8)
        viscous  : (0.346 0.0183 -0.00596)
        porous   : (0 0 0)
    sum of moments:
        pressure : (13 65.9 -4.93)
        viscous  : (0.00755 -0.0581 0.145)
        porous   : (0 0 0)

Time = 19

smoothSolver:  Solving for Ux, Initial residual = 0.00675, Final residual = 0.000578, No Iterations 9
smoothSolver:  Solving for Uy, Initial residual = 0.029, Final residual = 0.00267, No Iterations 9
smoothSolver:  Solving for Uz, Initial residual = 0.0126, Final residual = 0.000978, No Iterations 9
GAMG:  Solving for p, Initial residual = 0.0106, Final residual = 4.8e-05, No Iterations 4
time step continuity errors : sum local = 0.00022, global = 1.56e-05, cumulative = 0.000333
smoothSolver:  Solving for omega, Initial residual = 9.55e-07, Final residual = 8.32e-08, No Iterations 3
bounding omega, min: -2.18e+04 max: 3.26e+09 average: 6.65e+03
smoothSolver:  Solving for k, Initial residual = 0.00118, Final residual = 5.23e-05, No Iterations 3
bounding k, min: -0.00316 max: 641 average: 0.151
ExecutionTime = 110 s  ClockTime = 110 s

forceCoeffs forceCoeffs1 write:
    Cm    = 0.41
    Cd    = 0.784
    Cl    = -2.06
    Cl(f) = -0.621
    Cl(r) = -1.44

forces forces_others write:
    sum of forces:
        pressure : (12.5 -22.4 41.4)
        viscous  : (0.51 0.0591 0.00279)
        porous   : (0 0 0)
    sum of moments:
        pressure : (-6.49 -41.4 -11.3)
        viscous  : (0.00398 0.0796 0.297)
        porous   : (0 0 0)

forces forces_ns_rear_wing write:
    sum of forces:
        pressure : (36.2 4.26 -103)
        viscous  : (0.332 -0.00946 0.0774)
        porous   : (0 0 0)
    sum of moments:
        pressure : (24 209 14.3)
        viscous  : (-0.00923 0.0491 0.0963)
        porous   : (0 0 0)

forces forces_mono write:
    sum of forces:
        pressure : (3.44 -3.38 5.87)
        viscous  : (0.0743 -0.0131 0.0213)
        porous   : (0 0 0)
    sum of moments:
        pressure : (-0.636 -2.8 -4.38)
        viscous  : (-0.00443 -3.52e-05 0.0137)
        porous   : (0 0 0)

forces forces_ns_front_wing write:
    sum of forces:
        pressure : (10.4 -6.57 -56.5)
        viscous  : (0.32 0.00248 0.0566)
        porous   : (0 0 0)
    sum of moments:
        pressure : (16.2 -36.1 7.51)
        viscous  : (-0.0233 -0.0206 0.151)
        porous   : (0 0 0)

forces forces_dyfuzor write:
    sum of forces:
        pressure : (4.04 -3.32 -53.4)
        viscous  : (0.351 0.0178 -0.00561)
        porous   : (0 0 0)
    sum of moments:
        pressure : (12.6 64.6 -5.08)
        viscous  : (0.00749 -0.0596 0.146)
        porous   : (0 0 0)

Time = 20

smoothSolver:  Solving for Ux, Initial residual = 0.00654, Final residual = 0.000534, No Iterations 9
smoothSolver:  Solving for Uy, Initial residual = 0.0271, Final residual = 0.00241, No Iterations 9
smoothSolver:  Solving for Uz, Initial residual = 0.0118, Final residual = 0.00113, No Iterations 8
GAMG:  Solving for p, Initial residual = 0.0105, Final residual = 4.31e-05, No Iterations 4
time step continuity errors : sum local = 0.000202, global = 2.32e-05, cumulative = 0.000356
smoothSolver:  Solving for omega, Initial residual = 9.52e-07, Final residual = 8.12e-08, No Iterations 3
bounding omega, min: -2.63e+04 max: 3.26e+09 average: 6.71e+03
smoothSolver:  Solving for k, Initial residual = 0.00106, Final residual = 5.06e-05, No Iterations 3
bounding k, min: -0.00493 max: 613 average: 0.165
ExecutionTime = 115 s  ClockTime = 115 s

forceCoeffs forceCoeffs1 write:
    Cm    = 0.406
    Cd    = 0.792
    Cl    = -2.05
    Cl(f) = -0.621
    Cl(r) = -1.43

forces forces_others write:
    sum of forces:
        pressure : (12.6 -22.6 41.9)
        viscous  : (0.519 0.0584 0.000397)
        porous   : (0 0 0)
    sum of moments:
        pressure : (-6.6 -42.1 -11.3)
        viscous  : (0.00556 0.0844 0.301)
        porous   : (0 0 0)

forces forces_ns_rear_wing write:
    sum of forces:
        pressure : (36.8 4.02 -104)
        viscous  : (0.341 -0.00929 0.0772)
        porous   : (0 0 0)
    sum of moments:
        pressure : (24.4 211 14.1)
        viscous  : (-0.00893 0.0552 0.0999)
        porous   : (0 0 0)

forces forces_mono write:
    sum of forces:
        pressure : (3.59 -3.68 6.12)
        viscous  : (0.0734 -0.0137 0.0211)
        porous   : (0 0 0)
    sum of moments:
        pressure : (-0.641 -2.87 -4.58)
        viscous  : (-0.00426 9.31e-05 0.0131)
        porous   : (0 0 0)

forces forces_ns_front_wing write:
    sum of forces:
        pressure : (10.4 -6.54 -57)
        viscous  : (0.325 0.00235 0.0576)
        porous   : (0 0 0)
    sum of moments:
        pressure : (16.4 -36.5 7.49)
        viscous  : (-0.0236 -0.0209 0.154)
        porous   : (0 0 0)

forces forces_dyfuzor write:
    sum of forces:
        pressure : (3.98 -3.39 -51.7)
        viscous  : (0.356 0.0171 -0.0053)
        porous   : (0 0 0)
    sum of moments:
        pressure : (12.2 62.8 -5.23)
        viscous  : (0.00742 -0.0611 0.147)
        porous   : (0 0 0)

Time = 21

smoothSolver:  Solving for Ux, Initial residual = 0.00617, Final residual = 0.000485, No Iterations 9
smoothSolver:  Solving for Uy, Initial residual = 0.0248, Final residual = 0.00214, No Iterations 9
smoothSolver:  Solving for Uz, Initial residual = 0.0109, Final residual = 0.00102, No Iterations 8
GAMG:  Solving for p, Initial residual = 0.0104, Final residual = 3.85e-05, No Iterations 4
time step continuity errors : sum local = 0.000183, global = 2.57e-05, cumulative = 0.000381
smoothSolver:  Solving for omega, Initial residual = 9.83e-07, Final residual = 7.92e-08, No Iterations 3
bounding omega, min: -3.32e+04 max: 3.26e+09 average: 6.77e+03
smoothSolver:  Solving for k, Initial residual = 0.000983, Final residual = 4.9e-05, No Iterations 3
bounding k, min: -0.00145 max: 582 average: 0.178
ExecutionTime = 121 s  ClockTime = 121 s

forceCoeffs forceCoeffs1 write:
    Cm    = 0.399
    Cd    = 0.8
    Cl    = -2.04
    Cl(f) = -0.62
    Cl(r) = -1.42

forces forces_others write:
    sum of forces:
        pressure : (12.8 -22.9 42.5)
        viscous  : (0.527 0.058 -0.000721)
        porous   : (0 0 0)
    sum of moments:
        pressure : (-6.68 -42.9 -11.5)
        viscous  : (0.00652 0.0883 0.305)
        porous   : (0 0 0)

forces forces_ns_rear_wing write:
    sum of forces:
        pressure : (37.4 3.76 -105)
        viscous  : (0.35 -0.00974 0.0771)
        porous   : (0 0 0)
    sum of moments:
        pressure : (24.8 213 13.8)
        viscous  : (-0.00831 0.0612 0.102)
        porous   : (0 0 0)

forces forces_mono write:
    sum of forces:
        pressure : (3.65 -4.11 6.13)
        viscous  : (0.0728 -0.0144 0.0209)
        porous   : (0 0 0)
    sum of moments:
        pressure : (-0.613 -2.88 -4.8)
        viscous  : (-0.00404 0.000348 0.0125)
        porous   : (0 0 0)

forces forces_ns_front_wing write:
    sum of forces:
        pressure : (10.4 -6.49 -57.6)
        viscous  : (0.33 0.00234 0.0576)
        porous   : (0 0 0)
    sum of moments:
        pressure : (16.6 -36.9 7.47)
        viscous  : (-0.0235 -0.0217 0.156)
        porous   : (0 0 0)

forces forces_dyfuzor write:
    sum of forces:
        pressure : (3.9 -3.44 -49.9)
        viscous  : (0.361 0.0162 -0.00484)
        porous   : (0 0 0)
    sum of moments:
        pressure : (11.8 60.8 -5.36)
        viscous  : (0.00726 -0.0627 0.147)
        porous   : (0 0 0)

Time = 22

smoothSolver:  Solving for Ux, Initial residual = 0.00581, Final residual = 0.000571, No Iterations 8
smoothSolver:  Solving for Uy, Initial residual = 0.0231, Final residual = 0.00192, No Iterations 9
smoothSolver:  Solving for Uz, Initial residual = 0.0102, Final residual = 0.000919, No Iterations 8
GAMG:  Solving for p, Initial residual = 0.0103, Final residual = 3.5e-05, No Iterations 4
time step continuity errors : sum local = 0.000169, global = 2.21e-05, cumulative = 0.000404
smoothSolver:  Solving for omega, Initial residual = 1.05e-06, Final residual = 7.72e-08, No Iterations 3
bounding omega, min: -4.03e+04 max: 3.26e+09 average: 6.83e+03
smoothSolver:  Solving for k, Initial residual = 0.000907, Final residual = 4.78e-05, No Iterations 3
bounding k, min: -0.00203 max: 556 average: 0.191
ExecutionTime = 126 s  ClockTime = 126 s

forceCoeffs forceCoeffs1 write:
    Cm    = 0.389
    Cd    = 0.806
    Cl    = -2.02
    Cl(f) = -0.62
    Cl(r) = -1.4

forces forces_others write:
    sum of forces:
        pressure : (13 -23.2 43.1)
        viscous  : (0.535 0.0587 0.000659)
        porous   : (0 0 0)
    sum of moments:
        pressure : (-6.76 -43.8 -11.8)
        viscous  : (0.00613 0.0911 0.31)
        porous   : (0 0 0)

forces forces_ns_rear_wing write:
    sum of forces:
        pressure : (37.8 3.48 -105)
        viscous  : (0.359 -0.0104 0.0772)
        porous   : (0 0 0)
    sum of moments:
        pressure : (25.1 214 13.5)
        viscous  : (-0.00768 0.0675 0.104)
        porous   : (0 0 0)

forces forces_mono write:
    sum of forces:
        pressure : (3.63 -4.56 5.99)
        viscous  : (0.0724 -0.0153 0.0206)
        porous   : (0 0 0)
    sum of moments:
        pressure : (-0.568 -2.86 -5.01)
        viscous  : (-0.00378 0.000675 0.012)
        porous   : (0 0 0)

forces forces_ns_front_wing write:
    sum of forces:
        pressure : (10.4 -6.45 -58.2)
        viscous  : (0.334 0.00247 0.0574)
        porous   : (0 0 0)
    sum of moments:
        pressure : (16.7 -37.3 7.44)
        viscous  : (-0.0233 -0.0226 0.158)
        porous   : (0 0 0)

forces forces_dyfuzor write:
    sum of forces:
        pressure : (3.81 -3.45 -48.1)
        viscous  : (0.366 0.016 -0.00404)
        porous   : (0 0 0)
    sum of moments:
        pressure : (11.3 58.8 -5.42)
        viscous  : (0.00698 -0.0648 0.148)
        porous   : (0 0 0)

Time = 23

smoothSolver:  Solving for Ux, Initial residual = 0.00561, Final residual = 0.000539, No Iterations 8
smoothSolver:  Solving for Uy, Initial residual = 0.022, Final residual = 0.00176, No Iterations 9
smoothSolver:  Solving for Uz, Initial residual = 0.00974, Final residual = 0.000848, No Iterations 8
GAMG:  Solving for p, Initial residual = 0.0102, Final residual = 3.47e-05, No Iterations 4
time step continuity errors : sum local = 0.000167, global = 1.94e-05, cumulative = 0.000423
smoothSolver:  Solving for omega, Initial residual = 9.89e-07, Final residual = 7.5e-08, No Iterations 3
bounding omega, min: -4.54e+04 max: 3.26e+09 average: 6.86e+03
smoothSolver:  Solving for k, Initial residual = 0.000844, Final residual = 4.67e-05, No Iterations 3
bounding k, min: -0.00526 max: 538 average: 0.202
ExecutionTime = 131 s  ClockTime = 131 s

forceCoeffs forceCoeffs1 write:
    Cm    = 0.378
    Cd    = 0.812
    Cl    = -2
    Cl(f) = -0.62
    Cl(r) = -1.38

forces forces_others write:
    sum of forces:
        pressure : (13.2 -23.6 43.9)
        viscous  : (0.546 0.0613 0.00649)
        porous   : (0 0 0)
    sum of moments:
        pressure : (-6.86 -44.8 -12.3)
        viscous  : (0.00338 0.0913 0.317)
        porous   : (0 0 0)

forces forces_ns_rear_wing write:
    sum of forces:
        pressure : (38.1 3.2 -106)
        viscous  : (0.364 -0.0112 0.0779)
        porous   : (0 0 0)
    sum of moments:
        pressure : (25.4 215 13.1)
        viscous  : (-0.00697 0.0685 0.105)
        porous   : (0 0 0)

forces forces_mono write:
    sum of forces:
        pressure : (3.55 -5.05 5.85)
        viscous  : (0.0721 -0.0162 0.0202)
        porous   : (0 0 0)
    sum of moments:
        pressure : (-0.515 -2.84 -5.22)
        viscous  : (-0.00346 0.00111 0.0114)
        porous   : (0 0 0)

forces forces_ns_front_wing write:
    sum of forces:
        pressure : (10.4 -6.4 -58.7)
        viscous  : (0.338 0.00259 0.0572)
        porous   : (0 0 0)
    sum of moments:
        pressure : (16.9 -37.7 7.42)
        viscous  : (-0.0232 -0.0233 0.16)
        porous   : (0 0 0)

forces forces_dyfuzor write:
    sum of forces:
        pressure : (3.71 -3.44 -46.2)
        viscous  : (0.369 0.0158 -0.0031)
        porous   : (0 0 0)
    sum of moments:
        pressure : (10.9 56.7 -5.45)
        viscous  : (0.00665 -0.067 0.148)
        porous   : (0 0 0)

Time = 24

smoothSolver:  Solving for Ux, Initial residual = 0.00541, Final residual = 0.000513, No Iterations 8
smoothSolver:  Solving for Uy, Initial residual = 0.0212, Final residual = 0.00211, No Iterations 8
smoothSolver:  Solving for Uz, Initial residual = 0.00947, Final residual = 0.000805, No Iterations 8
GAMG:  Solving for p, Initial residual = 0.0101, Final residual = 3.42e-05, No Iterations 4
time step continuity errors : sum local = 0.000165, global = 1.52e-05, cumulative = 0.000438
smoothSolver:  Solving for omega, Initial residual = 1.25e-06, Final residual = 7.27e-08, No Iterations 3
bounding omega, min: -4.2e+04 max: 3.26e+09 average: 6.86e+03
smoothSolver:  Solving for k, Initial residual = 0.00079, Final residual = 4.6e-05, No Iterations 3
bounding k, min: -0.00242 max: 531 average: 0.212
ExecutionTime = 136 s  ClockTime = 137 s

forceCoeffs forceCoeffs1 write:
    Cm    = 0.367
    Cd    = 0.816
    Cl    = -1.97
    Cl(f) = -0.62
    Cl(r) = -1.35

forces forces_others write:
    sum of forces:
        pressure : (13.4 -24 44.5)
        viscous  : (0.555 0.063 0.0118)
        porous   : (0 0 0)
    sum of moments:
        pressure : (-6.99 -45.6 -12.7)
        viscous  : (0.000656 0.0913 0.321)
        porous   : (0 0 0)

forces forces_ns_rear_wing write:
    sum of forces:
        pressure : (38.4 2.89 -106)
        viscous  : (0.368 -0.0122 0.0775)
        porous   : (0 0 0)
    sum of moments:
        pressure : (25.7 215 12.7)
        viscous  : (-0.00599 0.0708 0.106)
        porous   : (0 0 0)

forces forces_mono write:
    sum of forces:
        pressure : (3.48 -5.46 5.81)
        viscous  : (0.072 -0.0174 0.0198)
        porous   : (0 0 0)
    sum of moments:
        pressure : (-0.47 -2.86 -5.38)
        viscous  : (-0.00309 0.00161 0.0108)
        porous   : (0 0 0)

forces forces_ns_front_wing write:
    sum of forces:
        pressure : (10.4 -6.35 -59.3)
        viscous  : (0.342 0.0027 0.0573)
        porous   : (0 0 0)
    sum of moments:
        pressure : (17.1 -38.1 7.41)
        viscous  : (-0.0231 -0.024 0.162)
        porous   : (0 0 0)

forces forces_dyfuzor write:
    sum of forces:
        pressure : (3.63 -3.42 -44.6)
        viscous  : (0.374 0.0153 -0.00209)
        porous   : (0 0 0)
    sum of moments:
        pressure : (10.5 55 -5.46)
        viscous  : (0.00626 -0.0693 0.149)
        porous   : (0 0 0)

Time = 25

smoothSolver:  Solving for Ux, Initial residual = 0.00513, Final residual = 0.000482, No Iterations 8
smoothSolver:  Solving for Uy, Initial residual = 0.0204, Final residual = 0.00197, No Iterations 8
smoothSolver:  Solving for Uz, Initial residual = 0.0092, Final residual = 0.000765, No Iterations 8
GAMG:  Solving for p, Initial residual = 0.0101, Final residual = 3.41e-05, No Iterations 4
time step continuity errors : sum local = 0.000164, global = 1.48e-05, cumulative = 0.000453
smoothSolver:  Solving for omega, Initial residual = 1.1e-06, Final residual = 7.05e-08, No Iterations 3
bounding omega, min: -4.26e+04 max: 3.26e+09 average: 6.86e+03
smoothSolver:  Solving for k, Initial residual = 0.000752, Final residual = 4.58e-05, No Iterations 3
bounding k, min: -0.00187 max: 523 average: 0.221
ExecutionTime = 142 s  ClockTime = 142 s

forceCoeffs forceCoeffs1 write:
    Cm    = 0.357
    Cd    = 0.818
    Cl    = -1.96
    Cl(f) = -0.622
    Cl(r) = -1.34

forces forces_others write:
    sum of forces:
        pressure : (13.4 -24.2 45)
        viscous  : (0.564 0.0648 0.0166)
        porous   : (0 0 0)
    sum of moments:
        pressure : (-7.18 -46.1 -13.1)
        viscous  : (-0.00179 0.0911 0.324)
        porous   : (0 0 0)

forces forces_ns_rear_wing write:
    sum of forces:
        pressure : (38.5 2.4 -106)
        viscous  : (0.372 -0.0138 0.0765)
        porous   : (0 0 0)
    sum of moments:
        pressure : (26 216 11.9)
        viscous  : (-0.00466 0.0745 0.105)
        porous   : (0 0 0)

forces forces_mono write:
    sum of forces:
        pressure : (3.41 -5.85 5.9)
        viscous  : (0.0722 -0.0188 0.0196)
        porous   : (0 0 0)
    sum of moments:
        pressure : (-0.435 -2.94 -5.53)
        viscous  : (-0.00272 0.0021 0.0101)
        porous   : (0 0 0)

forces forces_ns_front_wing write:
    sum of forces:
        pressure : (10.4 -6.31 -59.9)
        viscous  : (0.346 0.00285 0.0575)
        porous   : (0 0 0)
    sum of moments:
        pressure : (17.3 -38.5 7.39)
        viscous  : (-0.0231 -0.0245 0.164)
        porous   : (0 0 0)

forces forces_dyfuzor write:
    sum of forces:
        pressure : (3.57 -3.4 -43.3)
        viscous  : (0.378 0.0147 -0.0011)
        porous   : (0 0 0)
    sum of moments:
        pressure : (10.2 53.7 -5.47)
        viscous  : (0.00588 -0.0716 0.149)
        porous   : (0 0 0)

Time = 26

smoothSolver:  Solving for Ux, Initial residual = 0.0048, Final residual = 0.000449, No Iterations 8
smoothSolver:  Solving for Uy, Initial residual = 0.0194, Final residual = 0.00182, No Iterations 8
smoothSolver:  Solving for Uz, Initial residual = 0.00882, Final residual = 0.000722, No Iterations 8
GAMG:  Solving for p, Initial residual = 0.00985, Final residual = 3.36e-05, No Iterations 4
time step continuity errors : sum local = 0.000162, global = 1.51e-05, cumulative = 0.000468
smoothSolver:  Solving for omega, Initial residual = 1.51e-06, Final residual = 1.43e-07, No Iterations 2
bounding omega, min: -4.64e+04 max: 3.26e+09 average: 6.87e+03
smoothSolver:  Solving for k, Initial residual = 0.000742, Final residual = 4.65e-05, No Iterations 3
bounding k, min: -0.00543 max: 524 average: 0.229
ExecutionTime = 147 s  ClockTime = 147 s

forceCoeffs forceCoeffs1 write:
    Cm    = 0.348
    Cd    = 0.819
    Cl    = -1.94
    Cl(f) = -0.624
    Cl(r) = -1.32

forces forces_others write:
    sum of forces:
        pressure : (13.3 -24.2 45.3)
        viscous  : (0.571 0.0632 0.0178)
        porous   : (0 0 0)
    sum of moments:
        pressure : (-7.41 -46.4 -13.3)
        viscous  : (-0.00205 0.0936 0.323)
        porous   : (0 0 0)

forces forces_ns_rear_wing write:
    sum of forces:
        pressure : (38.7 1.65 -106)
        viscous  : (0.375 -0.0158 0.076)
        porous   : (0 0 0)
    sum of moments:
        pressure : (26.5 215 10.8)
        viscous  : (-0.0034 0.0774 0.104)
        porous   : (0 0 0)

forces forces_mono write:
    sum of forces:
        pressure : (3.4 -6.18 6.06)
        viscous  : (0.0726 -0.0206 0.0198)
        porous   : (0 0 0)
    sum of moments:
        pressure : (-0.406 -3.02 -5.65)
        viscous  : (-0.00238 0.00249 0.00932)
        porous   : (0 0 0)

forces forces_ns_front_wing write:
    sum of forces:
        pressure : (10.5 -6.27 -60.4)
        viscous  : (0.35 0.00303 0.0577)
        porous   : (0 0 0)
    sum of moments:
        pressure : (17.5 -38.8 7.38)
        viscous  : (-0.0232 -0.025 0.166)
        porous   : (0 0 0)

forces forces_dyfuzor write:
    sum of forces:
        pressure : (3.52 -3.39 -42.2)
        viscous  : (0.383 0.0144 -0.000233)
        porous   : (0 0 0)
    sum of moments:
        pressure : (9.89 52.6 -5.49)
        viscous  : (0.00557 -0.0737 0.15)
        porous   : (0 0 0)

Time = 27

smoothSolver:  Solving for Ux, Initial residual = 0.0045, Final residual = 0.000419, No Iterations 8
smoothSolver:  Solving for Uy, Initial residual = 0.0184, Final residual = 0.00168, No Iterations 8
smoothSolver:  Solving for Uz, Initial residual = 0.00835, Final residual = 0.000674, No Iterations 8
GAMG:  Solving for p, Initial residual = 0.00951, Final residual = 3.24e-05, No Iterations 4
time step continuity errors : sum local = 0.000157, global = 1.17e-05, cumulative = 0.00048
smoothSolver:  Solving for omega, Initial residual = 8.61e-06, Final residual = 3.13e-07, No Iterations 1
bounding omega, min: -4.45e+04 max: 3.26e+09 average: 6.88e+03
smoothSolver:  Solving for k, Initial residual = 0.00074, Final residual = 4.79e-05, No Iterations 3
bounding k, min: -0.00158 max: 538 average: 0.236
ExecutionTime = 152 s  ClockTime = 152 s

forceCoeffs forceCoeffs1 write:
    Cm    = 0.341
    Cd    = 0.82
    Cl    = -1.93
    Cl(f) = -0.626
    Cl(r) = -1.31

forces forces_others write:
    sum of forces:
        pressure : (13.3 -24.1 45.5)
        viscous  : (0.573 0.061 0.0149)
        porous   : (0 0 0)
    sum of moments:
        pressure : (-7.61 -46.6 -13.3)
        viscous  : (-0.000367 0.0987 0.32)
        porous   : (0 0 0)

forces forces_ns_rear_wing write:
    sum of forces:
        pressure : (38.9 0.665 -106)
        viscous  : (0.378 -0.0181 0.0762)
        porous   : (0 0 0)
    sum of moments:
        pressure : (27 215 9.35)
        viscous  : (-0.00233 0.0802 0.102)
        porous   : (0 0 0)

forces forces_mono write:
    sum of forces:
        pressure : (3.43 -6.38 6.22)
        viscous  : (0.0732 -0.0224 0.0201)
        porous   : (0 0 0)
    sum of moments:
        pressure : (-0.38 -3.08 -5.73)
        viscous  : (-0.00206 0.00281 0.00854)
        porous   : (0 0 0)

forces forces_ns_front_wing write:
    sum of forces:
        pressure : (10.5 -6.24 -60.9)
        viscous  : (0.354 0.0032 0.0581)
        porous   : (0 0 0)
    sum of moments:
        pressure : (17.6 -39.2 7.38)
        viscous  : (-0.0233 -0.0255 0.168)
        porous   : (0 0 0)

forces forces_dyfuzor write:
    sum of forces:
        pressure : (3.5 -3.37 -41.2)
        viscous  : (0.387 0.0145 0.000425)
        porous   : (0 0 0)
    sum of moments:
        pressure : (9.64 51.8 -5.49)
        viscous  : (0.00535 -0.0755 0.151)
        porous   : (0 0 0)

Time = 28

smoothSolver:  Solving for Ux, Initial residual = 0.00426, Final residual = 0.000394, No Iterations 8
smoothSolver:  Solving for Uy, Initial residual = 0.0174, Final residual = 0.00157, No Iterations 8
smoothSolver:  Solving for Uz, Initial residual = 0.00782, Final residual = 0.000627, No Iterations 8
GAMG:  Solving for p, Initial residual = 0.0091, Final residual = 3.09e-05, No Iterations 4
time step continuity errors : sum local = 0.00015, global = 6.98e-06, cumulative = 0.000487
smoothSolver:  Solving for omega, Initial residual = 2.23e-06, Final residual = 1.44e-07, No Iterations 2
bounding omega, min: -4.36e+04 max: 3.26e+09 average: 6.9e+03
smoothSolver:  Solving for k, Initial residual = 0.000762, Final residual = 4.94e-05, No Iterations 3
bounding k, min: -0.0158 max: 550 average: 0.243
ExecutionTime = 157 s  ClockTime = 157 s

forceCoeffs forceCoeffs1 write:
    Cm    = 0.334
    Cd    = 0.823
    Cl    = -1.93
    Cl(f) = -0.629
    Cl(r) = -1.3

forces forces_others write:
    sum of forces:
        pressure : (13.2 -23.9 45.4)
        viscous  : (0.576 0.0616 0.00726)
        porous   : (0 0 0)
    sum of moments:
        pressure : (-7.71 -46.5 -13.4)
        viscous  : (0.00341 0.107 0.32)
        porous   : (0 0 0)

forces forces_ns_rear_wing write:
    sum of forces:
        pressure : (39.2 -0.384 -105)
        viscous  : (0.383 -0.02 0.0774)
        porous   : (0 0 0)
    sum of moments:
        pressure : (27.5 215 7.82)
        viscous  : (-0.00176 0.0821 0.101)
        porous   : (0 0 0)

forces forces_mono write:
    sum of forces:
        pressure : (3.51 -6.43 6.29)
        viscous  : (0.0738 -0.0243 0.0206)
        porous   : (0 0 0)
    sum of moments:
        pressure : (-0.355 -3.08 -5.75)
        viscous  : (-0.00179 0.00299 0.00777)
        porous   : (0 0 0)

forces forces_ns_front_wing write:
    sum of forces:
        pressure : (10.5 -6.2 -61.4)
        viscous  : (0.358 0.00336 0.0586)
        porous   : (0 0 0)
    sum of moments:
        pressure : (17.8 -39.5 7.37)
        viscous  : (-0.0234 -0.0259 0.169)
        porous   : (0 0 0)

forces forces_dyfuzor write:
    sum of forces:
        pressure : (3.48 -3.33 -40.4)
        viscous  : (0.391 0.0148 0.000974)
        porous   : (0 0 0)
    sum of moments:
        pressure : (9.43 51.1 -5.44)
        viscous  : (0.00519 -0.0772 0.152)
        porous   : (0 0 0)

Time = 29

smoothSolver:  Solving for Ux, Initial residual = 0.00405, Final residual = 0.000371, No Iterations 8
smoothSolver:  Solving for Uy, Initial residual = 0.0164, Final residual = 0.00149, No Iterations 8
smoothSolver:  Solving for Uz, Initial residual = 0.00731, Final residual = 0.00059, No Iterations 8
GAMG:  Solving for p, Initial residual = 0.00866, Final residual = 8.62e-05, No Iterations 3
time step continuity errors : sum local = 0.000423, global = 1.63e-06, cumulative = 0.000488
smoothSolver:  Solving for omega, Initial residual = 1.01e-06, Final residual = 6.76e-08, No Iterations 3
bounding omega, min: -5.15e+04 max: 3.26e+09 average: 6.91e+03
smoothSolver:  Solving for k, Initial residual = 0.000748, Final residual = 5.05e-05, No Iterations 3
bounding k, min: -0.00502 max: 654 average: 0.25
ExecutionTime = 162 s  ClockTime = 163 s

forceCoeffs forceCoeffs1 write:
    Cm    = 0.329
    Cd    = 0.826
    Cl    = -1.93
    Cl(f) = -0.635
    Cl(r) = -1.29

forces forces_others write:
    sum of forces:
        pressure : (13.2 -23.9 45.3)
        viscous  : (0.58 0.0632 -0.00417)
        porous   : (0 0 0)
    sum of moments:
        pressure : (-7.7 -46.5 -13.6)
        viscous  : (0.00849 0.117 0.322)
        porous   : (0 0 0)

forces forces_ns_rear_wing write:
    sum of forces:
        pressure : (39.4 -1.19 -105)
        viscous  : (0.389 -0.0213 0.079)
        porous   : (0 0 0)
    sum of moments:
        pressure : (27.9 215 6.68)
        viscous  : (-0.00154 0.0839 0.101)
        porous   : (0 0 0)

forces forces_mono write:
    sum of forces:
        pressure : (3.61 -6.48 6.29)
        viscous  : (0.0744 -0.0261 0.0209)
        porous   : (0 0 0)
    sum of moments:
        pressure : (-0.34 -3.04 -5.75)
        viscous  : (-0.00152 0.00314 0.00703)
        porous   : (0 0 0)

forces forces_ns_front_wing write:
    sum of forces:
        pressure : (10.5 -6.18 -61.7)
        viscous  : (0.362 0.00345 0.0591)
        porous   : (0 0 0)
    sum of moments:
        pressure : (17.9 -39.7 7.37)
        viscous  : (-0.0236 -0.0262 0.171)
        porous   : (0 0 0)

forces forces_dyfuzor write:
    sum of forces:
        pressure : (3.46 -3.28 -40.2)
        viscous  : (0.393 0.0155 0.00133)
        porous   : (0 0 0)
    sum of moments:
        pressure : (9.38 50.9 -5.35)
        viscous  : (0.00515 -0.0783 0.154)
        porous   : (0 0 0)

Time = 30

smoothSolver:  Solving for Ux, Initial residual = 0.00383, Final residual = 0.000349, No Iterations 8
smoothSolver:  Solving for Uy, Initial residual = 0.0153, Final residual = 0.00141, No Iterations 8
smoothSolver:  Solving for Uz, Initial residual = 0.00682, Final residual = 0.000559, No Iterations 8
GAMG:  Solving for p, Initial residual = 0.0082, Final residual = 3.01e-05, No Iterations 4
time step continuity errors : sum local = 0.000149, global = 1.09e-05, cumulative = 0.000499
smoothSolver:  Solving for omega, Initial residual = 8.62e-07, Final residual = 6.57e-08, No Iterations 3
bounding omega, min: -8.58e+04 max: 3.26e+09 average: 6.93e+03
smoothSolver:  Solving for k, Initial residual = 0.000738, Final residual = 5.17e-05, No Iterations 3
bounding k, min: -0.00171 max: 814 average: 0.256
ExecutionTime = 168 s  ClockTime = 168 s

forceCoeffs forceCoeffs1 write:
    Cm    = 0.321
    Cd    = 0.831
    Cl    = -1.93
    Cl(f) = -0.645
    Cl(r) = -1.29

forces forces_others write:
    sum of forces:
        pressure : (13.3 -23.9 45.1)
        viscous  : (0.591 0.0718 -0.00768)
        porous   : (0 0 0)
    sum of moments:
        pressure : (-7.6 -46.6 -14)
        viscous  : (0.00878 0.122 0.333)
        porous   : (0 0 0)

forces forces_ns_rear_wing write:
    sum of forces:
        pressure : (39.8 -1.91 -105)
        viscous  : (0.397 -0.022 0.081)
        porous   : (0 0 0)
    sum of moments:
        pressure : (28.3 215 5.67)
        viscous  : (-0.00165 0.0859 0.103)
        porous   : (0 0 0)

forces forces_mono write:
    sum of forces:
        pressure : (3.68 -6.45 6.13)
        viscous  : (0.0749 -0.0277 0.0212)
        porous   : (0 0 0)
    sum of moments:
        pressure : (-0.33 -2.98 -5.65)
        viscous  : (-0.0013 0.0032 0.00635)
        porous   : (0 0 0)

forces forces_ns_front_wing write:
    sum of forces:
        pressure : (10.6 -6.14 -62.3)
        viscous  : (0.366 0.00352 0.0597)
        porous   : (0 0 0)
    sum of moments:
        pressure : (18.1 -40.1 7.37)
        viscous  : (-0.0239 -0.0266 0.173)
        porous   : (0 0 0)

forces forces_dyfuzor write:
    sum of forces:
        pressure : (3.4 -3.22 -39.9)
        viscous  : (0.396 0.0161 0.00169)
        porous   : (0 0 0)
    sum of moments:
        pressure : (9.31 50.5 -5.25)
        viscous  : (0.0051 -0.0793 0.156)
        porous   : (0 0 0)

Time = 31

smoothSolver:  Solving for Ux, Initial residual = 0.00368, Final residual = 0.000334, No Iterations 8
smoothSolver:  Solving for Uy, Initial residual = 0.0146, Final residual = 0.00137, No Iterations 8
smoothSolver:  Solving for Uz, Initial residual = 0.00647, Final residual = 0.000534, No Iterations 8
GAMG:  Solving for p, Initial residual = 0.00776, Final residual = 2.71e-05, No Iterations 4
time step continuity errors : sum local = 0.000136, global = 1.18e-05, cumulative = 0.000511
smoothSolver:  Solving for omega, Initial residual = 1.07e-06, Final residual = 6.4e-08, No Iterations 3
bounding omega, min: -6.96e+04 max: 3.26e+09 average: 6.95e+03
smoothSolver:  Solving for k, Initial residual = 0.000727, Final residual = 5.35e-05, No Iterations 3
bounding k, min: -0.0114 max: 828 average: 0.262
ExecutionTime = 173 s  ClockTime = 173 s

forceCoeffs forceCoeffs1 write:
    Cm    = 0.313
    Cd    = 0.836
    Cl    = -1.94
    Cl(f) = -0.657
    Cl(r) = -1.28

forces forces_others write:
    sum of forces:
        pressure : (13.4 -24.1 44.9)
        viscous  : (0.606 0.0826 -0.00601)
        porous   : (0 0 0)
    sum of moments:
        pressure : (-7.42 -46.8 -14.3)
        viscous  : (0.00665 0.124 0.347)
        porous   : (0 0 0)

forces forces_ns_rear_wing write:
    sum of forces:
        pressure : (40 -2.01 -105)
        viscous  : (0.405 -0.0222 0.0837)
        porous   : (0 0 0)
    sum of moments:
        pressure : (28.4 215 5.57)
        viscous  : (-0.00214 0.0871 0.105)
        porous   : (0 0 0)

forces forces_mono write:
    sum of forces:
        pressure : (3.72 -6.42 6.04)
        viscous  : (0.0754 -0.0294 0.0218)
        porous   : (0 0 0)
    sum of moments:
        pressure : (-0.343 -2.99 -5.54)
        viscous  : (-0.00116 0.00306 0.00567)
        porous   : (0 0 0)

forces forces_ns_front_wing write:
    sum of forces:
        pressure : (10.6 -6.11 -62.8)
        viscous  : (0.371 0.00355 0.0604)
        porous   : (0 0 0)
    sum of moments:
        pressure : (18.3 -40.4 7.38)
        viscous  : (-0.0242 -0.0269 0.176)
        porous   : (0 0 0)

forces forces_dyfuzor write:
    sum of forces:
        pressure : (3.33 -3.14 -39.8)
        viscous  : (0.399 0.0165 0.00227)
        porous   : (0 0 0)
    sum of moments:
        pressure : (9.35 50.3 -5.09)
        viscous  : (0.00497 -0.0806 0.157)
        porous   : (0 0 0)

Time = 32

smoothSolver:  Solving for Ux, Initial residual = 0.00354, Final residual = 0.000321, No Iterations 8
smoothSolver:  Solving for Uy, Initial residual = 0.0139, Final residual = 0.00131, No Iterations 8
smoothSolver:  Solving for Uz, Initial residual = 0.00616, Final residual = 0.000516, No Iterations 8
GAMG:  Solving for p, Initial residual = 0.00745, Final residual = 2.7e-05, No Iterations 4
time step continuity errors : sum local = 0.000137, global = 1.29e-05, cumulative = 0.000524
smoothSolver:  Solving for omega, Initial residual = 1.06e-06, Final residual = 6.27e-08, No Iterations 3
bounding omega, min: -1.46e+05 max: 3.26e+09 average: 6.97e+03
smoothSolver:  Solving for k, Initial residual = 0.000767, Final residual = 5.59e-05, No Iterations 3
bounding k, min: -0.00889 max: 813 average: 0.268
ExecutionTime = 178 s  ClockTime = 178 s

forceCoeffs forceCoeffs1 write:
    Cm    = 0.304
    Cd    = 0.841
    Cl    = -1.94
    Cl(f) = -0.668
    Cl(r) = -1.28

forces forces_others write:
    sum of forces:
        pressure : (13.7 -24.2 44.9)
        viscous  : (0.624 0.0898 -0.00441)
        porous   : (0 0 0)
    sum of moments:
        pressure : (-7.21 -47.1 -14.6)
        viscous  : (0.00516 0.126 0.359)
        porous   : (0 0 0)

forces forces_ns_rear_wing write:
    sum of forces:
        pressure : (40.2 -1.83 -105)
        viscous  : (0.415 -0.0224 0.0868)
        porous   : (0 0 0)
    sum of moments:
        pressure : (28.3 215 5.87)
        viscous  : (-0.00283 0.0872 0.108)
        porous   : (0 0 0)

forces forces_mono write:
    sum of forces:
        pressure : (3.75 -6.3 6.01)
        viscous  : (0.0758 -0.0309 0.0227)
        porous   : (0 0 0)
    sum of moments:
        pressure : (-0.375 -3.04 -5.39)
        viscous  : (-0.00113 0.0027 0.00497)
        porous   : (0 0 0)

forces forces_ns_front_wing write:
    sum of forces:
        pressure : (10.7 -6.09 -63.2)
        viscous  : (0.375 0.00349 0.0611)
        porous   : (0 0 0)
    sum of moments:
        pressure : (18.4 -40.7 7.38)
        viscous  : (-0.0245 -0.0272 0.178)
        porous   : (0 0 0)

forces forces_dyfuzor write:
    sum of forces:
        pressure : (3.25 -3.05 -39.6)
        viscous  : (0.402 0.0168 0.00302)
        porous   : (0 0 0)
    sum of moments:
        pressure : (9.35 49.8 -4.94)
        viscous  : (0.00476 -0.0821 0.159)
        porous   : (0 0 0)

Time = 33

smoothSolver:  Solving for Ux, Initial residual = 0.00344, Final residual = 0.000309, No Iterations 8
smoothSolver:  Solving for Uy, Initial residual = 0.0134, Final residual = 0.00127, No Iterations 8
smoothSolver:  Solving for Uz, Initial residual = 0.00599, Final residual = 0.000506, No Iterations 8
GAMG:  Solving for p, Initial residual = 0.00724, Final residual = 2.71e-05, No Iterations 4
time step continuity errors : sum local = 0.000138, global = 1.5e-05, cumulative = 0.000539
[...]
        viscous  : (0.636 0.0352 0.0127)
        porous   : (0 0 0)
    sum of moments:
        pressure : (13.3 69.8 -3.96)
        viscous  : (0.00636 -0.143 0.242)
        porous   : (0 0 0)

Time = 353

smoothSolver:  Solving for Ux, Initial residual = 0.0014, Final residual = 0.000115, No Iterations 9
smoothSolver:  Solving for Uy, Initial residual = 0.00558, Final residual = 0.00045, No Iterations 9
smoothSolver:  Solving for Uz, Initial residual = 0.00236, Final residual = 0.000217, No Iterations 8
GAMG:  Solving for p, Initial residual = 0.00294, Final residual = 1.07e-05, No Iterations 4
time step continuity errors : sum local = 5.55e-05, global = 5.33e-06, cumulative = 3.39e-05
smoothSolver:  Solving for omega, Initial residual = 3.18e-07, Final residual = 1.81e-08, No Iterations 3
bounding omega, min: -1.12e+05 max: 3.26e+09 average: 7.64e+03
smoothSolver:  Solving for k, Initial residual = 0.00149, Final residual = 8.48e-05, No Iterations 4
bounding k, min: -0.00236 max: 912 average: 0.916
ExecutionTime = 845 s  ClockTime = 869 s

forceCoeffs forceCoeffs1 write:
    Cm    = 0.262
    Cd    = 0.863
    Cl    = -2.12
    Cl(f) = -0.798
    Cl(r) = -1.32

forces forces_others write:
    sum of forces:
        pressure : (14 -24.1 37.6)
        viscous  : (1.01 0.0674 0.124)
        porous   : (0 0 0)
    sum of moments:
        pressure : (-3.86 -40 -16.2)
        viscous  : (-0.0415 0.0525 0.56)
        porous   : (0 0 0)

forces forces_ns_rear_wing write:
    sum of forces:
        pressure : (38.8 -8.04 -91)
        viscous  : (0.747 -0.0165 0.206)
        porous   : (0 0 0)
    sum of moments:
        pressure : (29.1 190 -4.53)
        viscous  : (-0.0419 0.0605 0.23)
        porous   : (0 0 0)

forces forces_mono write:
    sum of forces:
        pressure : (4.82 -6.34 7.93)
        viscous  : (0.143 -0.104 0.066)
        porous   : (0 0 0)
    sum of moments:
        pressure : (-0.495 -2.12 -5.95)
        viscous  : (0.00251 0.000717 -0.0184)
        porous   : (0 0 0)

forces forces_ns_front_wing write:
    sum of forces:
        pressure : (10.5 -5.63 -66.1)
        viscous  : (0.446 0.0112 0.0805)
        porous   : (0 0 0)
    sum of moments:
        pressure : (19.5 -42.7 7.14)
        viscous  : (-0.0319 -0.0285 0.208)
        porous   : (0 0 0)

forces forces_dyfuzor write:
    sum of forces:
        pressure : (4.91 -2.76 -54.3)
        viscous  : (0.635 0.0354 0.013)
        porous   : (0 0 0)
    sum of moments:
        pressure : (13.4 70.1 -4.03)
        viscous  : (0.00624 -0.144 0.243)
        porous   : (0 0 0)

Time = 354

smoothSolver:  Solving for Ux, Initial residual = 0.00138, Final residual = 0.000114, No Iterations 9
smoothSolver:  Solving for Uy, Initial residual = 0.00551, Final residual = 0.000452, No Iterations 9
smoothSolver:  Solving for Uz, Initial residual = 0.00234, Final residual = 0.000219, No Iterations 8
GAMG:  Solving for p, Initial residual = 0.00288, Final residual = 1.16e-05, No Iterations 4
time step continuity errors : sum local = 6.03e-05, global = 6.87e-06, cumulative = 4.08e-05
smoothSolver:  Solving for omega, Initial residual = 3.58e-07, Final residual = 1.8e-08, No Iterations 3
bounding omega, min: -1.18e+05 max: 3.26e+09 average: 7.63e+03
smoothSolver:  Solving for k, Initial residual = 0.00149, Final residual = 8.52e-05, No Iterations 4
bounding k, min: -0.00437 max: 915 average: 0.914
ExecutionTime = 902 s  ClockTime = 931 s

forceCoeffs forceCoeffs1 write:
    Cm    = 0.261
    Cd    = 0.863
    Cl    = -2.12
    Cl(f) = -0.798
    Cl(r) = -1.32

forces forces_others write:
    sum of forces:
        pressure : (14 -24.2 37.7)
        viscous  : (1.01 0.0703 0.123)
        porous   : (0 0 0)
    sum of moments:
        pressure : (-3.89 -40 -16.1)
        viscous  : (-0.0412 0.0576 0.561)
        porous   : (0 0 0)

forces forces_ns_rear_wing write:
    sum of forces:
        pressure : (38.8 -8.18 -90.9)
        viscous  : (0.747 -0.0163 0.205)
        porous   : (0 0 0)
    sum of moments:
        pressure : (29.1 190 -4.72)
        viscous  : (-0.0417 0.0613 0.231)
        porous   : (0 0 0)

forces forces_mono write:
    sum of forces:
        pressure : (4.86 -6.17 7.98)
        viscous  : (0.144 -0.105 0.0647)
        porous   : (0 0 0)
    sum of moments:
        pressure : (-0.506 -2.11 -5.88)
        viscous  : (0.00317 0.00168 -0.0193)
        porous   : (0 0 0)

forces forces_ns_front_wing write:
    sum of forces:
        pressure : (10.5 -5.63 -66.1)
        viscous  : (0.446 0.0112 0.0806)
        porous   : (0 0 0)
    sum of moments:
        pressure : (19.5 -42.7 7.14)
        viscous  : (-0.0319 -0.0285 0.208)
        porous   : (0 0 0)

forces forces_dyfuzor write:
    sum of forces:
        pressure : (4.91 -2.79 -54.4)
        viscous  : (0.635 0.0357 0.0133)
        porous   : (0 0 0)
    sum of moments:
        pressure : (13.4 70.1 -4.09)
        viscous  : (0.00614 -0.144 0.243)
        porous   : (0 0 0)

Time = 355

smoothSolver:  Solving for Ux, Initial residual = 0.00136, Final residual = 0.000112, No Iterations 9
smoothSolver:  Solving for Uy, Initial residual = 0.00541, Final residual = 0.000453, No Iterations 9
smoothSolver:  Solving for Uz, Initial residual = 0.00232, Final residual = 0.000218, No Iterations 8
GAMG:  Solving for p, Initial residual = 0.00285, Final residual = 9.87e-06, No Iterations 4
time step continuity errors : sum local = 5.12e-05, global = 4.54e-07, cumulative = 4.12e-05
smoothSolver:  Solving for omega, Initial residual = 4.08e-07, Final residual = 4.05e-08, No Iterations 2
bounding omega, min: -1.25e+05 max: 3.26e+09 average: 7.63e+03
smoothSolver:  Solving for k, Initial residual = 0.0015, Final residual = 8.61e-05, No Iterations 4
bounding k, min: -0.000121 max: 918 average: 0.913
ExecutionTime = 955 s  ClockTime = 986 s

forceCoeffs forceCoeffs1 write:
    Cm    = 0.26
    Cd    = 0.863
    Cl    = -2.12
    Cl(f) = -0.799
    Cl(r) = -1.32

forces forces_others write:
    sum of forces:
        pressure : (14 -25.2 37.7)
        viscous  : (1.01 0.0712 0.123)
        porous   : (0 0 0)
    sum of moments:
        pressure : (-3.63 -40.1 -17.1)
        viscous  : (-0.0415 0.0607 0.561)
        porous   : (0 0 0)

forces forces_ns_rear_wing write:
    sum of forces:
        pressure : (38.8 -8.27 -90.7)
        viscous  : (0.747 -0.016 0.204)
        porous   : (0 0 0)
    sum of moments:
        pressure : (29.1 190 -4.84)
        viscous  : (-0.0414 0.0628 0.231)
        porous   : (0 0 0)

forces forces_mono write:
    sum of forces:
        pressure : (4.89 -6.03 7.89)
        viscous  : (0.145 -0.106 0.0644)
        porous   : (0 0 0)
    sum of moments:
        pressure : (-0.481 -1.94 -5.82)
        viscous  : (0.00368 0.0023 -0.0202)
        porous   : (0 0 0)

forces forces_ns_front_wing write:
    sum of forces:
        pressure : (10.5 -5.64 -66.1)
        viscous  : (0.446 0.0112 0.0806)
        porous   : (0 0 0)
    sum of moments:
        pressure : (19.5 -42.6 7.14)
        viscous  : (-0.032 -0.0285 0.208)
        porous   : (0 0 0)

forces forces_dyfuzor write:
    sum of forces:
        pressure : (4.92 -2.83 -54.8)
        viscous  : (0.635 0.0359 0.0135)
        porous   : (0 0 0)
    sum of moments:
        pressure : (13.4 70.4 -4.14)
        viscous  : (0.00608 -0.144 0.243)
        porous   : (0 0 0)

Time = 356

smoothSolver:  Solving for Ux, Initial residual = 0.00136, Final residual = 0.000112, No Iterations 9
smoothSolver:  Solving for Uy, Initial residual = 0.00543, Final residual = 0.000463, No Iterations 9
smoothSolver:  Solving for Uz, Initial residual = 0.00231, Final residual = 0.000217, No Iterations 8
GAMG:  Solving for p, Initial residual = 0.00286, Final residual = 9.52e-06, No Iterations 4
time step continuity errors : sum local = 4.93e-05, global = -3.17e-06, cumulative = 3.81e-05
smoothSolver:  Solving for omega, Initial residual = 4.6e-07, Final residual = 4.16e-08, No Iterations 2
bounding omega, min: -1.32e+05 max: 3.26e+09 average: 7.63e+03
smoothSolver:  Solving for k, Initial residual = 0.00151, Final residual = 8.75e-05, No Iterations 4
bounding k, min: -0.00404 max: 923 average: 0.911
ExecutionTime = 1.01e+03 s  ClockTime = 1046 s

forceCoeffs forceCoeffs1 write:
    Cm    = 0.26
    Cd    = 0.865
    Cl    = -2.12
    Cl(f) = -0.801
    Cl(r) = -1.32

forces forces_others write:
    sum of forces:
        pressure : (14.2 -26.2 37.6)
        viscous  : (1 0.0697 0.124)
        porous   : (0 0 0)
    sum of moments:
        pressure : (-3.32 -40 -18.1)
        viscous  : (-0.0417 0.0632 0.559)
        porous   : (0 0 0)

forces forces_ns_rear_wing write:
    sum of forces:
        pressure : (38.8 -8.26 -90.4)
        viscous  : (0.747 -0.0158 0.203)
        porous   : (0 0 0)
    sum of moments:
        pressure : (29 189 -4.83)
        viscous  : (-0.041 0.0647 0.232)
        porous   : (0 0 0)

forces forces_mono write:
    sum of forces:
        pressure : (4.9 -5.98 7.65)
        viscous  : (0.146 -0.107 0.0651)
        porous   : (0 0 0)
    sum of moments:
        pressure : (-0.43 -1.71 -5.82)
        viscous  : (0.00371 0.00208 -0.0206)
        porous   : (0 0 0)

forces forces_ns_front_wing write:
    sum of forces:
        pressure : (10.5 -5.64 -66.1)
        viscous  : (0.446 0.0111 0.0806)
        porous   : (0 0 0)
    sum of moments:
        pressure : (19.5 -42.6 7.14)
        viscous  : (-0.032 -0.0284 0.208)
        porous   : (0 0 0)

forces forces_dyfuzor write:
    sum of forces:
        pressure : (4.94 -2.86 -55)
        viscous  : (0.635 0.0361 0.0134)
        porous   : (0 0 0)
    sum of moments:
        pressure : (13.5 70.6 -4.17)
        viscous  : (0.00612 -0.144 0.243)
        porous   : (0 0 0)

Time = 357

smoothSolver:  Solving for Ux, Initial residual = 0.00135, Final residual = 0.000112, No Iterations 9
smoothSolver:  Solving for Uy, Initial residual = 0.00541, Final residual = 0.000462, No Iterations 9
smoothSolver:  Solving for Uz, Initial residual = 0.0023, Final residual = 0.000219, No Iterations 8
GAMG:  Solving for p, Initial residual = 0.00287, Final residual = 1.16e-05, No Iterations 4
time step continuity errors : sum local = 5.98e-05, global = -5.02e-06, cumulative = 3.31e-05
smoothSolver:  Solving for omega, Initial residual = 4.71e-07, Final residual = 4.22e-08, No Iterations 2
bounding omega, min: -1.37e+05 max: 3.26e+09 average: 7.62e+03
smoothSolver:  Solving for k, Initial residual = 0.00152, Final residual = 8.88e-05, No Iterations 4
bounding k, min: -0.000542 max: 928 average: 0.91
ExecutionTime = 1.07e+03 s  ClockTime = 1107 s

forceCoeffs forceCoeffs1 write:
    Cm    = 0.258
    Cd    = 0.868
    Cl    = -2.12
    Cl(f) = -0.801
    Cl(r) = -1.32

forces forces_others write:
    sum of forces:
        pressure : (14.5 -26.5 37.6)
        viscous  : (1 0.0674 0.123)
        porous   : (0 0 0)
    sum of moments:
        pressure : (-3.26 -40 -18.3)
        viscous  : (-0.0414 0.0656 0.557)
        porous   : (0 0 0)

forces forces_ns_rear_wing write:
    sum of forces:
        pressure : (38.7 -8.21 -90.2)
        viscous  : (0.747 -0.0155 0.202)
        porous   : (0 0 0)
    sum of moments:
        pressure : (29 189 -4.77)
        viscous  : (-0.0406 0.0668 0.233)
        porous   : (0 0 0)

forces forces_mono write:
    sum of forces:
        pressure : (4.89 -6.02 7.56)
        viscous  : (0.145 -0.107 0.0664)
        porous   : (0 0 0)
    sum of moments:
        pressure : (-0.404 -1.63 -5.91)
        viscous  : (0.0033 0.00111 -0.0204)
        porous   : (0 0 0)

forces forces_ns_front_wing write:
    sum of forces:
        pressure : (10.5 -5.64 -66)
        viscous  : (0.446 0.0111 0.0806)
        porous   : (0 0 0)
    sum of moments:
        pressure : (19.5 -42.6 7.14)
        viscous  : (-0.032 -0.0284 0.208)
        porous   : (0 0 0)

forces forces_dyfuzor write:
    sum of forces:
        pressure : (4.96 -2.89 -55.1)
        viscous  : (0.635 0.0363 0.0131)
        porous   : (0 0 0)
    sum of moments:
        pressure : (13.5 70.8 -4.2)
        viscous  : (0.00629 -0.144 0.244)
        porous   : (0 0 0)

Time = 358

smoothSolver:  Solving for Ux, Initial residual = 0.00134, Final residual = 0.00011, No Iterations 9
smoothSolver:  Solving for Uy, Initial residual = 0.00538, Final residual = 0.000455, No Iterations 9
smoothSolver:  Solving for Uz, Initial residual = 0.00228, Final residual = 0.000215, No Iterations 8
GAMG:  Solving for p, Initial residual = 0.00287, Final residual = 1.22e-05, No Iterations 4
time step continuity errors : sum local = 6.3e-05, global = -2.8e-06, cumulative = 3.03e-05
smoothSolver:  Solving for omega, Initial residual = 4.44e-07, Final residual = 4.25e-08, No Iterations 2
bounding omega, min: -1.37e+05 max: 3.26e+09 average: 7.62e+03
smoothSolver:  Solving for k, Initial residual = 0.00154, Final residual = 9e-05, No Iterations 4
bounding k, min: -0.00432 max: 932 average: 0.908
ExecutionTime = 1.12e+03 s  ClockTime = 1164 s

forceCoeffs forceCoeffs1 write:
    Cm    = 0.258
    Cd    = 0.871
    Cl    = -2.12
    Cl(f) = -0.801
    Cl(r) = -1.32

forces forces_others write:
    sum of forces:
        pressure : (14.8 -26.2 37.7)
        viscous  : (0.998 0.0662 0.121)
        porous   : (0 0 0)
    sum of moments:
        pressure : (-3.44 -40 -17.7)
        viscous  : (-0.0411 0.0684 0.555)
        porous   : (0 0 0)

forces forces_ns_rear_wing write:
    sum of forces:
        pressure : (38.6 -8.15 -89.9)
        viscous  : (0.747 -0.0151 0.2)
        porous   : (0 0 0)
    sum of moments:
        pressure : (28.9 188 -4.7)
        viscous  : (-0.0401 0.0692 0.234)
        porous   : (0 0 0)

forces forces_mono write:
    sum of forces:
        pressure : (4.89 -5.96 7.72)
        viscous  : (0.144 -0.106 0.0671)
        porous   : (0 0 0)
    sum of moments:
        pressure : (-0.421 -1.71 -6.01)
        viscous  : (0.00284 0.000243 -0.0199)
        porous   : (0 0 0)

forces forces_ns_front_wing write:
    sum of forces:
        pressure : (10.4 -5.65 -66)
        viscous  : (0.446 0.0111 0.0806)
        porous   : (0 0 0)
    sum of moments:
        pressure : (19.5 -42.6 7.14)
        viscous  : (-0.032 -0.0284 0.208)
        porous   : (0 0 0)

forces forces_dyfuzor write:
    sum of forces:
        pressure : (4.98 -2.9 -55.3)
        viscous  : (0.636 0.0365 0.0125)
        porous   : (0 0 0)
    sum of moments:
        pressure : (13.5 71 -4.22)
        viscous  : (0.00659 -0.143 0.244)
        porous   : (0 0 0)

Time = 359

smoothSolver:  Solving for Ux, Initial residual = 0.00132, Final residual = 0.000107, No Iterations 9
smoothSolver:  Solving for Uy, Initial residual = 0.00539, Final residual = 0.00045, No Iterations 9
smoothSolver:  Solving for Uz, Initial residual = 0.00227, Final residual = 0.000209, No Iterations 8
GAMG:  Solving for p, Initial residual = 0.0029, Final residual = 1.08e-05, No Iterations 4
time step continuity errors : sum local = 5.57e-05, global = 4.07e-07, cumulative = 3.07e-05
smoothSolver:  Solving for omega, Initial residual = 4.32e-07, Final residual = 4.26e-08, No Iterations 2
bounding omega, min: -1.33e+05 max: 3.26e+09 average: 7.62e+03
smoothSolver:  Solving for k, Initial residual = 0.00155, Final residual = 9.07e-05, No Iterations 4
bounding k, min: -0.000142 max: 935 average: 0.907
ExecutionTime = 1.18e+03 s  ClockTime = 1222 s

forceCoeffs forceCoeffs1 write:
    Cm    = 0.257
    Cd    = 0.873
    Cl    = -2.12
    Cl(f) = -0.801
    Cl(r) = -1.32

forces forces_others write:
    sum of forces:
        pressure : (15 -25.5 37.8)
        viscous  : (0.992 0.0673 0.121)
        porous   : (0 0 0)
    sum of moments:
        pressure : (-3.79 -39.9 -16.6)
        viscous  : (-0.0414 0.0701 0.553)
        porous   : (0 0 0)

forces forces_ns_rear_wing write:
    sum of forces:
        pressure : (38.4 -8.12 -89.7)
        viscous  : (0.747 -0.0148 0.198)
        porous   : (0 0 0)
    sum of moments:
        pressure : (28.8 188 -4.67)
        viscous  : (-0.0396 0.0719 0.235)
        porous   : (0 0 0)

forces forces_mono write:
    sum of forces:
        pressure : (4.94 -5.8 8.06)
        viscous  : (0.143 -0.105 0.0667)
        porous   : (0 0 0)
    sum of moments:
        pressure : (-0.468 -1.89 -6.07)
        viscous  : (0.00274 0.000236 -0.0196)
        porous   : (0 0 0)

forces forces_ns_front_wing write:
    sum of forces:
        pressure : (10.4 -5.65 -65.9)
        viscous  : (0.446 0.011 0.0807)
        porous   : (0 0 0)
    sum of moments:
        pressure : (19.4 -42.5 7.14)
        viscous  : (-0.032 -0.0284 0.208)
        porous   : (0 0 0)

forces forces_dyfuzor write:
    sum of forces:
        pressure : (5 -2.89 -55.6)
        viscous  : (0.636 0.0367 0.0116)
        porous   : (0 0 0)
    sum of moments:
        pressure : (13.6 71.3 -4.2)
        viscous  : (0.00697 -0.141 0.244)
        porous   : (0 0 0)

Time = 360

smoothSolver:  Solving for Ux, Initial residual = 0.00132, Final residual = 0.000107, No Iterations 9
smoothSolver:  Solving for Uy, Initial residual = 0.00541, Final residual = 0.000447, No Iterations 9
smoothSolver:  Solving for Uz, Initial residual = 0.00229, Final residual = 0.000211, No Iterations 8
GAMG:  Solving for p, Initial residual = 0.00288, Final residual = 1.17e-05, No Iterations 4
time step continuity errors : sum local = 6.06e-05, global = 1.25e-07, cumulative = 3.08e-05
smoothSolver:  Solving for omega, Initial residual = 6.26e-07, Final residual = 4.27e-08, No Iterations 2
bounding omega, min: -1.28e+05 max: 3.26e+09 average: 7.62e+03
smoothSolver:  Solving for k, Initial residual = 0.00157, Final residual = 9.09e-05, No Iterations 4
bounding k, min: -0.000463 max: 938 average: 0.906
ExecutionTime = 1.23e+03 s  ClockTime = 1280 s

forceCoeffs forceCoeffs1 write:
    Cm    = 0.257
    Cd    = 0.873
    Cl    = -2.12
    Cl(f) = -0.801
    Cl(r) = -1.31

forces forces_others write:
    sum of forces:
        pressure : (15.2 -25.4 37.7)
        viscous  : (0.985 0.0692 0.122)
        porous   : (0 0 0)
    sum of moments:
        pressure : (-3.93 -39.8 -16.3)
        viscous  : (-0.0426 0.0698 0.55)
        porous   : (0 0 0)

forces forces_ns_rear_wing write:
    sum of forces:
        pressure : (38.3 -8.12 -89.5)
        viscous  : (0.748 -0.0146 0.197)
        porous   : (0 0 0)
    sum of moments:
        pressure : (28.8 187 -4.69)
        viscous  : (-0.039 0.075 0.237)
        porous   : (0 0 0)

forces forces_mono write:
    sum of forces:
        pressure : (4.99 -5.64 8.31)
        viscous  : (0.144 -0.105 0.0657)
        porous   : (0 0 0)
    sum of moments:
        pressure : (-0.498 -1.98 -6.07)
        viscous  : (0.00307 0.000866 -0.0198)
        porous   : (0 0 0)

forces forces_ns_front_wing write:
    sum of forces:
        pressure : (10.4 -5.66 -65.9)
        viscous  : (0.446 0.011 0.0807)
        porous   : (0 0 0)
    sum of moments:
        pressure : (19.4 -42.5 7.13)
        viscous  : (-0.032 -0.0283 0.208)
        porous   : (0 0 0)

forces forces_dyfuzor write:
    sum of forces:
        pressure : (5 -2.85 -55.8)
        viscous  : (0.637 0.0368 0.0107)
        porous   : (0 0 0)
    sum of moments:
        pressure : (13.6 71.4 -4.14)
        viscous  : (0.00737 -0.14 0.244)
        porous   : (0 0 0)

Time = 361

smoothSolver:  Solving for Ux, Initial residual = 0.00132, Final residual = 0.000108, No Iterations 9
smoothSolver:  Solving for Uy, Initial residual = 0.00542, Final residual = 0.000452, No Iterations 9
smoothSolver:  Solving for Uz, Initial residual = 0.00231, Final residual = 0.000214, No Iterations 8
--------------------------------------------------------------------------
mpirun noticed that process rank 3 with PID 13005 on node ip-172-31-2-175 exited on signal 15 (Terminated).
--------------------------------------------------------------------------
